# generated using pymatgen
data_Li15Fe16(PO4)16
_symmetry_space_group_name_H-M   'P 1'
_cell_length_a   10.33842274
_cell_length_b   12.50328921
_cell_length_c   9.47720351
_cell_angle_alpha   89.99999924
_cell_angle_beta   89.99984847
_cell_angle_gamma   90.00000605
_symmetry_Int_Tables_number   1
_chemical_formula_structural   Li15Fe16(PO4)16
_chemical_formula_sum   'Li135 Fe144 P144 O576'
_cell_volume   1225.06397774
_cell_formula_units_Z   9
loop_
 _symmetry_equiv_pos_site_id
 _symmetry_equiv_pos_as_xyz
  1  'x, y, z'
loop_
 _atom_site_type_symbol
 _atom_site_label
 _atom_site_symmetry_multiplicity
 _atom_site_fract_x
 _atom_site_fract_y
 _atom_site_fract_z
 _atom_site_occupancy
  Li  Li0  1  -0.00147346  0.49943428  0.50140566  1
  Li  Li1  1  0.49713881  0.25410683  0.24066814  1
  Li  Li2  1  0.50289512  0.74585450  0.25939042  1
  Li  Li3  1  0.00061151  0.00096427  0.49916034  1
  Li  Li4  1  -0.00057252  0.49908523  0.00077408  1
  Li  Li5  1  0.00074696  0.00216630  -0.00176235  1
  Li  Li6  1  -0.00070510  0.49788550  0.50169929  1
  Li  Li7  1  0.50001470  0.24997871  0.25002137  1
  Li  Li8  1  0.50000845  0.74998203  0.25002036  1
  Li  Li9  1  0.50001878  0.74997808  0.75002974  1
  Li  Li10  1  0.50285950  0.00410726  0.25932415  1
  Li  Li11  1  0.50539987  0.01684661  0.76032079  1
  Li  Li12  1  0.49710214  0.49585636  0.24061185  1
  Li  Li13  1  0.49458876  0.48313211  0.73965588  1
  Li  Li14  1  0.00149616  0.24941014  -0.00143914  1
  Li  Li15  1  -0.00151510  0.25062965  0.50147932  1
  Li  Li16  1  0.00090619  0.74972750  -0.00040626  1
  Li  Li17  1  -0.00098231  0.75034671  0.50051010  1
  Li  Li18  1  0.00158841  0.00174041  -0.00203077  1
  Li  Li19  1  0.50542177  0.73312566  0.76034126  1
  Li  Li20  1  0.49999224  -0.00001792  0.24997861  1
  Li  Li21  1  0.49998483  -0.00002067  0.74997666  1
  Li  Li22  1  0.49998047  0.49997416  0.24997053  1
  Li  Li23  1  0.49459910  0.26685927  0.73967249  1
  Li  Li24  1  0.00164031  0.00113042  0.49845617  1
  Li  Li25  1  0.00025527  0.49981526  -0.00049754  1
  Li  Li26  1  0.00023696  0.49831418  0.50128359  1
  Li  Li27  1  0.49704848  0.25150420  0.24434945  1
  Li  Li28  1  0.50110408  0.74805818  0.25313061  1
  Li  Li29  1  -0.00059905  0.25095302  0.00081218  1
  Li  Li30  1  -0.00076494  0.25219693  0.50177723  1
  Li  Li31  1  0.00072102  0.74786687  -0.00171978  1
  Li  Li32  1  0.00054565  0.74912158  0.49925345  1
  Li  Li33  1  0.50266139  0.00351242  0.25584749  1
  Li  Li34  1  0.50292830  0.00919869  0.75615474  1
  Li  Li35  1  0.49537675  0.49754333  0.24168973  1
  Li  Li36  1  0.52861153  0.31654499  0.72077521  1
  Li  Li37  1  0.00099821  0.24959583  -0.00180490  1
  Li  Li38  1  0.00199260  0.25121416  0.50119538  1
  Li  Li39  1  0.50293089  0.74213520  0.75564225  1
  Li  Li40  1  0.50466775  0.00538777  0.26101735  1
  Li  Li41  1  0.50548177  0.01590180  0.76031682  1
  Li  Li42  1  0.49488638  0.49555742  0.23936123  1
  Li  Li43  1  0.50959878  0.45936450  0.72975570  1
  Li  Li44  1  0.00069219  0.24877667  -0.00168730  1
  Li  Li45  1  -0.00067148  0.25026223  0.50152619  1
  Li  Li46  1  0.00063689  0.75016373  0.00034236  1
  Li  Li47  1  -0.00057728  0.75047328  0.50087563  1
  Li  Li48  1  0.00305037  0.25057113  0.50078792  1
  Li  Li49  1  0.00136598  0.74897916  -0.00136772  1
  Li  Li50  1  0.00076297  0.74972776  0.49923203  1
  Li  Li51  1  0.00057112  0.00007342  -0.00004171  1
  Li  Li52  1  0.00053396  0.00028244  0.49980939  1
  Li  Li53  1  0.00093470  0.50157442  -0.00223749  1
  Li  Li54  1  0.00072276  0.50035896  0.50108389  1
  Li  Li55  1  0.49415967  0.25404025  0.23851093  1
  Li  Li56  1  0.50483831  0.74436565  0.26111794  1
  Li  Li57  1  0.50524723  0.73485766  0.75956280  1
  Li  Li58  1  0.00151117  0.50062077  -0.00147910  1
  Li  Li59  1  0.00165863  0.50188645  -0.00301265  1
  Li  Li60  1  0.00220679  0.50043910  0.50063306  1
  Li  Li61  1  0.49378129  0.25398954  0.23832857  1
  Li  Li62  1  0.50458950  0.74405334  0.26057390  1
  Li  Li63  1  0.50507367  0.73641535  0.75829081  1
  Li  Li64  1  0.50370499  0.00479020  0.25778927  1
  Li  Li65  1  0.50360481  0.00994746  0.75671408  1
  Li  Li66  1  0.49410157  0.49678740  0.23994939  1
  Li  Li67  1  0.54626937  0.34554607  0.71456732  1
  Li  Li68  1  0.00154170  0.24886197  -0.00286517  1
  Li  Li69  1  0.50470031  0.74455444  0.26108349  1
  Li  Li70  1  0.50544479  0.73405579  0.76032835  1
  Li  Li71  1  0.50375296  0.74514035  0.25788109  1
  Li  Li72  1  0.50361790  0.73997418  0.75676910  1
  Li  Li73  1  0.50456072  0.00588509  0.26048767  1
  Li  Li74  1  0.50507629  0.01357467  0.75826537  1
  Li  Li75  1  0.49376314  0.49594049  0.23826338  1
  Li  Li76  1  0.54627158  0.40445856  0.71456413  1
  Li  Li77  1  0.00159659  0.24819550  -0.00287913  1
  Li  Li78  1  0.00202160  0.24975820  0.50086381  1
  Li  Li79  1  0.00110766  0.74928607  -0.00097652  1
  Li  Li80  1  0.00029041  0.75000987  0.49974904  1
  Li  Li81  1  0.50106532  0.00186573  0.25304564  1
  Li  Li82  1  0.50295019  0.00783544  0.75562677  1
  Li  Li83  1  0.49696420  0.49839474  0.24425789  1
  Li  Li84  1  0.50958206  0.29060215  0.72976680  1
  Li  Li85  1  0.00021556  0.25024695  -0.00040804  1
  Li  Li86  1  0.00004007  0.25196034  0.50158775  1
  Li  Li87  1  0.00153290  0.74831645  -0.00192707  1
  Li  Li88  1  0.00134927  0.74921759  0.49883151  1
  Li  Li89  1  0.00094888  0.00030935  -0.00047999  1
  Li  Li90  1  -0.00077285  -0.00016476  0.50028823  1
  Li  Li91  1  0.55107211  0.37501158  0.71053663  1
  Li  Li92  1  0.00161692  0.24839175  -0.00296426  1
  Li  Li93  1  0.00376329  0.24976195  0.50035135  1
  Li  Li94  1  0.00123939  0.74911099  -0.00134033  1
  Li  Li95  1  0.00064565  0.74994376  0.49946187  1
  Li  Li96  1  0.00117668  0.00080106  -0.00110670  1
  Li  Li97  1  0.00045631  0.00018827  0.49950569  1
  Li  Li98  1  0.00151094  0.74862267  -0.00165751  1
  Li  Li99  1  0.00103445  0.74947986  0.49902860  1
  Li  Li100  1  0.00066900  -0.00011739  0.00019331  1
  Li  Li101  1  0.00014073  0.00018879  0.50009590  1
  Li  Li102  1  0.00074368  0.50129344  -0.00177733  1
  Li  Li103  1  -0.00055061  0.49992002  0.50133632  1
  Li  Li104  1  0.49490817  0.25439681  0.23939355  1
  Li  Li105  1  0.50271143  0.74642095  0.25593515  1
  Li  Li106  1  0.50293168  0.74078583  0.75617956  1
  Li  Li107  1  0.50479862  0.00558427  0.26104879  1
  Li  Li108  1  0.50524546  0.01513313  0.75954710  1
  Li  Li109  1  0.49413662  0.49590452  0.23846207  1
  Li  Li110  1  0.00143874  0.00111382  -0.00151471  1
  Li  Li111  1  0.00111524  0.00061648  0.49890615  1
  Li  Li112  1  0.00159356  0.50121209  -0.00297784  1
  Li  Li113  1  0.00339143  0.49974877  0.50049285  1
  Li  Li114  1  0.49413901  0.25312456  0.24005840  1
  Li  Li115  1  0.00131517  0.00098048  -0.00147505  1
  Li  Li116  1  0.00082025  0.00026962  0.49920210  1
  Li  Li117  1  0.00165649  0.50166217  -0.00305692  1
  Li  Li118  1  0.00409764  0.50055371  0.49991173  1
  Li  Li119  1  0.49368881  0.25371869  0.23856193  1
  Li  Li120  1  0.50410973  0.74423813  0.25950768  1
  Li  Li121  1  0.50484872  0.73850101  0.75755706  1
  Li  Li122  1  0.50406467  0.00568120  0.25942177  1
  Li  Li123  1  0.50483955  0.01147338  0.75753879  1
  Li  Li124  1  0.49366825  0.49621172  0.23845783  1
  Li  Li125  1  0.00156564  0.00144771  -0.00177585  1
  Li  Li126  1  0.52861966  0.43344399  0.72076788  1
  Li  Li127  1  0.00085670  0.24851478  -0.00211584  1
  Li  Li128  1  0.00060649  0.24979990  0.50126405  1
  Li  Li129  1  0.00051270  0.74999978  0.00007253  1
  Li  Li130  1  0.00036233  0.74991417  0.50006212  1
  Li  Li131  1  0.00127441  0.00076004  0.49874474  1
  Li  Li132  1  0.00105962  0.50047067  -0.00189070  1
  Li  Li133  1  0.00212922  0.49895214  0.50100144  1
  Li  Li134  1  0.49544476  0.25236589  0.24179509  1
  Fe  Fe135  1  0.28359869  0.62320820  0.48343739  1
  Fe  Fe136  1  0.28381624  0.62317896  0.98133252  1
  Fe  Fe137  1  0.21793216  0.37515235  0.23303272  1
  Fe  Fe138  1  0.22159266  0.37461814  0.73731193  1
  Fe  Fe139  1  0.21792420  0.87453270  0.23274060  1
  Fe  Fe140  1  0.77840290  0.12538715  0.76269288  1
  Fe  Fe141  1  0.78207661  0.62546447  0.26726047  1
  Fe  Fe142  1  0.78191091  0.62516830  0.76685748  1
  Fe  Fe143  1  0.78206428  0.12485807  0.26696184  1
  Fe  Fe144  1  0.71621467  0.37467477  0.01558547  1
  Fe  Fe145  1  0.28472483  0.62254238  0.98025961  1
  Fe  Fe146  1  0.21685822  0.37465175  0.23143801  1
  Fe  Fe147  1  0.28190175  0.62407226  0.48304252  1
  Fe  Fe148  1  0.28420439  0.62335360  0.98154195  1
  Fe  Fe149  1  0.21696138  0.37466015  0.23147548  1
  Fe  Fe150  1  0.22009799  0.37402454  0.73769630  1
  Fe  Fe151  1  0.21842831  0.87483686  0.23195106  1
  Fe  Fe152  1  0.21874907  0.87449717  0.73326820  1
  Fe  Fe153  1  0.78162579  0.12400877  0.26840361  1
  Fe  Fe154  1  0.77840102  0.12520289  0.76368983  1
  Fe  Fe155  1  0.71547591  0.87474557  0.52087985  1
  Fe  Fe156  1  0.28318521  0.12447323  0.48401981  1
  Fe  Fe157  1  0.28463467  0.12728401  0.98198090  1
  Fe  Fe158  1  0.22032189  0.37399942  0.73672270  1
  Fe  Fe159  1  0.21843662  0.87456820  0.23208386  1
  Fe  Fe160  1  0.21875021  0.87440153  0.73309327  1
  Fe  Fe161  1  0.78182944  0.12409861  0.26833956  1
  Fe  Fe162  1  0.77854810  0.12490739  0.76314633  1
  Fe  Fe163  1  0.78196925  0.62509614  0.26863120  1
  Fe  Fe164  1  0.78041541  0.62450262  0.76662166  1
  Fe  Fe165  1  0.28190019  0.12591951  0.48303988  1
  Fe  Fe166  1  0.28420574  0.12663868  0.98153319  1
  Fe  Fe167  1  0.28319390  0.62551975  0.48402339  1
  Fe  Fe168  1  0.28463057  0.62270868  0.98199203  1
  Fe  Fe169  1  0.21696185  0.37533938  0.23148557  1
  Fe  Fe170  1  0.22009355  0.37598162  0.73769287  1
  Fe  Fe171  1  0.21842531  0.87515928  0.23195235  1
  Fe  Fe172  1  0.21874944  0.87550837  0.73326694  1
  Fe  Fe173  1  0.78229702  0.12500746  0.26816761  1
  Fe  Fe174  1  0.78155788  0.62555516  0.26876090  1
  Fe  Fe175  1  0.77912276  0.62384149  0.76552370  1
  Fe  Fe176  1  0.71782395  0.37433561  0.02094339  1
  Fe  Fe177  1  0.71924353  0.37261812  0.50670946  1
  Fe  Fe178  1  0.71627033  0.87555171  0.01654189  1
  Fe  Fe179  1  0.71504315  0.87475429  0.52142662  1
  Fe  Fe180  1  0.28279451  0.12475690  0.48373693  1
  Fe  Fe181  1  0.28464793  0.12711279  0.98194137  1
  Fe  Fe182  1  0.28126915  0.62563073  0.48263896  1
  Fe  Fe183  1  0.28391801  0.62354465  0.98199857  1
  Fe  Fe184  1  0.21793030  0.37485934  0.23303525  1
  Fe  Fe185  1  0.22159518  0.37539242  0.73731276  1
  Fe  Fe186  1  0.21792517  0.87545572  0.23273528  1
  Fe  Fe187  1  0.21808773  0.87516896  0.73314848  1
  Fe  Fe188  1  0.71771303  0.37380124  0.02011792  1
  Fe  Fe189  1  0.71675116  0.37106130  0.51186010  1
  Fe  Fe190  1  0.71637348  0.87577554  0.01677905  1
  Fe  Fe191  1  0.71597304  0.37263765  0.51821338  1
  Fe  Fe192  1  0.71639816  0.87679580  0.01656680  1
  Fe  Fe193  1  0.71618593  0.87681146  0.51866312  1
  Fe  Fe194  1  0.28379481  0.12532014  0.48441231  1
  Fe  Fe195  1  0.28403780  0.12736092  0.98177765  1
  Fe  Fe196  1  0.21809524  0.87483286  0.73314983  1
  Fe  Fe197  1  0.78202519  0.12432874  0.26819279  1
  Fe  Fe198  1  0.78121161  0.12555625  0.76718291  1
  Fe  Fe199  1  0.78202491  0.62568333  0.26822107  1
  Fe  Fe200  1  0.77888775  0.62501300  0.76311412  1
  Fe  Fe201  1  0.71708066  0.37607271  0.01833453  1
  Fe  Fe202  1  0.71558606  0.37903202  0.51567407  1
  Fe  Fe203  1  0.71667640  0.87366085  0.01690906  1
  Fe  Fe204  1  0.71581331  0.87487406  0.52037222  1
  Fe  Fe205  1  0.28263118  0.12720470  0.48317745  1
  Fe  Fe206  1  0.28474276  0.12744714  0.98024656  1
  Fe  Fe207  1  0.28360335  0.62569069  0.48408782  1
  Fe  Fe208  1  0.21747869  0.37481575  0.23197378  1
  Fe  Fe209  1  0.22103991  0.37450262  0.73821218  1
  Fe  Fe210  1  0.21845455  0.87505181  0.23180152  1
  Fe  Fe211  1  0.21859549  0.87480171  0.73339769  1
  Fe  Fe212  1  0.78140650  0.12410336  0.26874103  1
  Fe  Fe213  1  0.77812382  0.12653035  0.76434246  1
  Fe  Fe214  1  0.78141406  0.62590915  0.26873628  1
  Fe  Fe215  1  0.77814298  0.62346532  0.76435695  1
  Fe  Fe216  1  0.71744780  0.37499079  0.02098469  1
  Fe  Fe217  1  0.72070359  0.37498409  0.50413340  1
  Fe  Fe218  1  0.78207432  0.62515149  0.26696279  1
  Fe  Fe219  1  0.77840564  0.62461387  0.76269063  1
  Fe  Fe220  1  0.71620958  0.37532407  0.01558361  1
  Fe  Fe221  1  0.71597908  0.37735632  0.51821441  1
  Fe  Fe222  1  0.71640619  0.87320206  0.01656423  1
  Fe  Fe223  1  0.71618949  0.87316625  0.51867671  1
  Fe  Fe224  1  0.28360845  0.12679522  0.48343010  1
  Fe  Fe225  1  0.28382069  0.12681195  0.98132320  1
  Fe  Fe226  1  0.28377319  0.62467454  0.48441690  1
  Fe  Fe227  1  0.28403626  0.62263406  0.98178785  1
  Fe  Fe228  1  0.77891274  0.12498635  0.76310459  1
  Fe  Fe229  1  0.78231351  0.62500176  0.26818019  1
  Fe  Fe230  1  0.78119296  0.62442608  0.76721666  1
  Fe  Fe231  1  0.71707806  0.37392037  0.01833746  1
  Fe  Fe232  1  0.71559339  0.37096059  0.51567319  1
  Fe  Fe233  1  0.71666516  0.87632122  0.01690482  1
  Fe  Fe234  1  0.71580658  0.87510557  0.52035890  1
  Fe  Fe235  1  0.28363849  0.12429431  0.48409803  1
  Fe  Fe236  1  0.28434505  0.12698203  0.98185702  1
  Fe  Fe237  1  0.28258713  0.62279593  0.48317749  1
  Fe  Fe238  1  0.28434249  0.62301274  0.98187303  1
  Fe  Fe239  1  0.21685351  0.37535814  0.23143152  1
  Fe  Fe240  1  0.22032526  0.37602180  0.73672698  1
  Fe  Fe241  1  0.21844791  0.87540926  0.23206528  1
  Fe  Fe242  1  0.21873112  0.87560789  0.73308880  1
  Fe  Fe243  1  0.78207287  0.12453751  0.26726544  1
  Fe  Fe244  1  0.78191139  0.12482774  0.76685445  1
  Fe  Fe245  1  0.28280725  0.62523346  0.48373816  1
  Fe  Fe246  1  0.28464563  0.62288395  0.98194780  1
  Fe  Fe247  1  0.21747742  0.37517633  0.23197232  1
  Fe  Fe248  1  0.22104141  0.37550094  0.73821050  1
  Fe  Fe249  1  0.21845339  0.87494946  0.23180391  1
  Fe  Fe250  1  0.21859267  0.87520799  0.73339364  1
  Fe  Fe251  1  0.78197801  0.12491114  0.26861891  1
  Fe  Fe252  1  0.78041384  0.12549753  0.76660738  1
  Fe  Fe253  1  0.78182817  0.62590128  0.26834517  1
  Fe  Fe254  1  0.77854395  0.62508801  0.76315854  1
  Fe  Fe255  1  0.71771445  0.37619193  0.02012127  1
  Fe  Fe256  1  0.71674930  0.37894275  0.51185970  1
  Fe  Fe257  1  0.71636946  0.87420924  0.01677310  1
  Fe  Fe258  1  0.71547367  0.87525734  0.52087753  1
  Fe  Fe259  1  0.71642216  0.87499123  0.01635267  1
  Fe  Fe260  1  0.71473913  0.87499286  0.52162931  1
  Fe  Fe261  1  0.28239652  0.12497503  0.48366664  1
  Fe  Fe262  1  0.28446368  0.12686590  0.98188911  1
  Fe  Fe263  1  0.28244516  0.62501920  0.48368156  1
  Fe  Fe264  1  0.28446755  0.62312540  0.98190168  1
  Fe  Fe265  1  0.21766821  0.37499070  0.23169950  1
  Fe  Fe266  1  0.22118760  0.37500647  0.73820343  1
  Fe  Fe267  1  0.21861825  0.87500404  0.23189521  1
  Fe  Fe268  1  0.21847963  0.87500583  0.73348938  1
  Fe  Fe269  1  0.78155643  0.12445434  0.26874400  1
  Fe  Fe270  1  0.77911306  0.12615741  0.76550959  1
  Fe  Fe271  1  0.78162665  0.62599295  0.26840908  1
  Fe  Fe272  1  0.77840298  0.62479628  0.76370285  1
  Fe  Fe273  1  0.71782419  0.37565286  0.02094390  1
  Fe  Fe274  1  0.71923826  0.37736746  0.50670505  1
  Fe  Fe275  1  0.71626753  0.87443129  0.01654292  1
  Fe  Fe276  1  0.71503900  0.87524300  0.52142720  1
  Fe  Fe277  1  0.28125722  0.12436513  0.48264000  1
  Fe  Fe278  1  0.28391801  0.12645055  0.98199317  1
  P  P279  1  0.09226646  0.12470286  0.20298431  1
  P  P280  1  0.09145961  0.12500056  0.70258275  1
  P  P281  1  0.09207775  0.62487025  0.20186224  1
  P  P282  1  0.09159978  0.62456446  0.70186586  1
  P  P283  1  0.40565793  0.37800153  0.44959634  1
  P  P284  1  0.40696941  0.37569889  0.95639381  1
  P  P285  1  0.40643405  0.87692630  0.45153212  1
  P  P286  1  0.40756568  0.87550939  0.95085731  1
  P  P287  1  0.59400185  0.12292250  0.04934514  1
  P  P288  1  0.59132297  0.12749171  0.54850482  1
  P  P289  1  0.59470414  0.62818065  0.05044331  1
  P  P290  1  0.59260795  0.62600200  0.54492616  1
  P  P291  1  0.90799570  0.37488115  0.29810657  1
  P  P292  1  0.90737845  0.37540572  0.79741979  1
  P  P293  1  0.90788863  0.87543063  0.29914186  1
  P  P294  1  0.90766350  0.87457084  0.29929923  1
  P  P295  1  0.90823580  0.87475934  0.79864287  1
  P  P296  1  0.40698563  0.37561192  0.95661783  1
  P  P297  1  0.40640905  0.87349603  0.45167197  1
  P  P298  1  0.40711076  0.87440678  0.95161147  1
  P  P299  1  0.59434237  0.12199309  0.05040084  1
  P  P300  1  0.59301261  0.12439096  0.54337062  1
  P  P301  1  0.59288167  0.62559247  0.54839731  1
  P  P302  1  0.90773190  0.37529396  0.29701167  1
  P  P303  1  0.90854645  0.37499041  0.79741984  1
  P  P304  1  0.90792414  0.87512467  0.29813913  1
  P  P305  1  0.90840333  0.87543285  0.79814142  1
  P  P306  1  0.40644915  0.87363989  0.45153483  1
  P  P307  1  0.40732324  0.87475674  0.95081622  1
  P  P308  1  0.09082808  0.62447856  0.70248396  1
  P  P309  1  0.40350420  0.37463207  0.44611052  1
  P  P310  1  0.40592595  0.37453245  0.95745824  1
  P  P311  1  0.59266498  0.12394893  0.54489858  1
  P  P312  1  0.59399605  0.62706960  0.04936264  1
  P  P313  1  0.59131907  0.62250689  0.54850679  1
  P  P314  1  0.09172126  0.62553284  0.20270325  1
  P  P315  1  0.09141216  0.62549000  0.70268047  1
  P  P316  1  0.40411188  0.37497065  0.44718535  1
  P  P317  1  0.90889233  0.37502230  0.29804469  1
  P  P318  1  0.90666377  0.37442395  0.79692781  1
  P  P319  1  0.59488315  0.12157858  0.05043033  1
  P  P320  1  0.09151409  0.12480537  0.20256757  1
  P  P321  1  0.59358983  0.12349581  0.04832747  1
  P  P322  1  0.59289085  0.12440480  0.54839132  1
  P  P323  1  0.59434437  0.62800456  0.05041722  1
  P  P324  1  0.59299440  0.62560390  0.54340851  1
  P  P325  1  0.90773039  0.37470506  0.29701365  1
  P  P326  1  0.90854524  0.37499584  0.79742515  1
  P  P327  1  0.90792492  0.87487751  0.29815290  1
  P  P328  1  0.90840243  0.87456061  0.79813797  1
  P  P329  1  0.09114645  0.62550674  0.70276147  1
  P  P330  1  0.40351704  0.37535405  0.44611350  1
  P  P331  1  0.40592786  0.37546017  0.95745689  1
  P  P332  1  0.40645042  0.87635548  0.45153339  1
  P  P333  1  0.40731948  0.87524209  0.95081599  1
  P  P334  1  0.59418547  0.12241701  0.04989167  1
  P  P335  1  0.59026463  0.12879489  0.54858695  1
  P  P336  1  0.59487863  0.62840973  0.05044584  1
  P  P337  1  0.09076645  0.12475381  0.70275800  1
  P  P338  1  0.09106276  0.62498601  0.20207767  1
  P  P339  1  0.09043336  0.62481472  0.70259082  1
  P  P340  1  0.40392849  0.37489571  0.44624684  1
  P  P341  1  0.40460469  0.37493407  0.95867275  1
  P  P342  1  0.40659320  0.87453592  0.45149978  1
  P  P343  1  0.40707670  0.87496026  0.95093826  1
  P  P344  1  0.59463177  0.12172784  0.05011911  1
  P  P345  1  0.59122980  0.12856962  0.54760086  1
  P  P346  1  0.59426313  0.62762010  0.04976792  1
  P  P347  1  0.90750192  0.87498849  0.79840595  1
  P  P348  1  0.09106778  0.12499465  0.20207163  1
  P  P349  1  0.09043008  0.12518759  0.70257560  1
  P  P350  1  0.09151338  0.62517582  0.20258425  1
  P  P351  1  0.09076935  0.62524615  0.70276351  1
  P  P352  1  0.40396598  0.37505389  0.44626233  1
  P  P353  1  0.40460381  0.37505660  0.95867287  1
  P  P354  1  0.40659410  0.87546316  0.45150060  1
  P  P355  1  0.40707416  0.87504354  0.95093999  1
  P  P356  1  0.59426571  0.12236391  0.04975340  1
  P  P357  1  0.90666471  0.37556140  0.79692899  1
  P  P358  1  0.90766170  0.87543089  0.29929259  1
  P  P359  1  0.90823625  0.87521543  0.79864223  1
  P  P360  1  0.09218407  0.12518432  0.20113651  1
  P  P361  1  0.09114953  0.12582897  0.70199929  1
  P  P362  1  0.09217278  0.62477944  0.20115693  1
  P  P363  1  0.09113718  0.62418917  0.70198252  1
  P  P364  1  0.40410643  0.37500450  0.44718860  1
  P  P365  1  0.40696746  0.37429388  0.95639249  1
  P  P366  1  0.40643393  0.87306803  0.45152669  1
  P  P367  1  0.40756098  0.87448871  0.95086157  1
  P  P368  1  0.59470673  0.12180661  0.05041860  1
  P  P369  1  0.59197361  0.12574781  0.54577745  1
  P  P370  1  0.59418067  0.62757086  0.04990312  1
  P  P371  1  0.59026729  0.62121168  0.54859752  1
  P  P372  1  0.59198226  0.62425353  0.54579361  1
  P  P373  1  0.90889189  0.37497070  0.29804644  1
  P  P374  1  0.58959590  0.13039590  0.54944282  1
  P  P375  1  0.59462809  0.62825467  0.05013338  1
  P  P376  1  0.59127145  0.62139648  0.54763217  1
  P  P377  1  0.90992775  0.37498701  0.29740237  1
  P  P378  1  0.90621601  0.37546912  0.79604211  1
  P  P379  1  0.90741968  0.87520592  0.29938694  1
  P  P380  1  0.90786438  0.87520765  0.79856038  1
  P  P381  1  0.09154909  0.12519209  0.20156887  1
  P  P382  1  0.09082772  0.12552018  0.70248199  1
  P  P383  1  0.09157425  0.62535786  0.20259173  1
  P  P384  1  0.40454472  0.37499368  0.95826809  1
  P  P385  1  0.40669601  0.87499813  0.45166403  1
  P  P386  1  0.40706142  0.87499932  0.95102318  1
  P  P387  1  0.59440781  0.12198662  0.04987158  1
  P  P388  1  0.59004079  0.13115602  0.54956050  1
  P  P389  1  0.59440636  0.62799651  0.04988449  1
  P  P390  1  0.59007056  0.61883531  0.54957202  1
  P  P391  1  0.91019269  0.37500741  0.29734907  1
  P  P392  1  0.90614167  0.37498377  0.79579553  1
  P  P393  1  0.90733311  0.87499554  0.29943740  1
  P  P394  1  0.58960724  0.61960447  0.54945062  1
  P  P395  1  0.90992722  0.37500898  0.29740383  1
  P  P396  1  0.90621404  0.37451675  0.79604010  1
  P  P397  1  0.90742230  0.87479419  0.29939465  1
  P  P398  1  0.90786542  0.87476829  0.79855763  1
  P  P399  1  0.09134701  0.12486490  0.20254580  1
  P  P400  1  0.09031946  0.12493940  0.70278499  1
  P  P401  1  0.09134943  0.62511216  0.20255128  1
  P  P402  1  0.09033806  0.62507031  0.70280749  1
  P  P403  1  0.40406507  0.37499771  0.44586672  1
  P  P404  1  0.90845669  0.87518915  0.79868130  1
  P  P405  1  0.09207550  0.12512183  0.20185282  1
  P  P406  1  0.09160255  0.12544019  0.70186892  1
  P  P407  1  0.09226396  0.62529174  0.20299438  1
  P  P408  1  0.09145051  0.62499414  0.70258806  1
  P  P409  1  0.40565559  0.37198658  0.44960145  1
  P  P410  1  0.40698294  0.37439286  0.95662938  1
  P  P411  1  0.40641214  0.87650977  0.45166779  1
  P  P412  1  0.40711289  0.87559336  0.95160904  1
  P  P413  1  0.90799328  0.37511186  0.29810736  1
  P  P414  1  0.90737904  0.37457721  0.79741391  1
  P  P415  1  0.90788520  0.87458278  0.29911027  1
  P  P416  1  0.90846409  0.87475419  0.79870162  1
  P  P417  1  0.09158057  0.12462384  0.20257332  1
  P  P418  1  0.09114564  0.12449284  0.70276236  1
  P  P419  1  0.09154085  0.62478767  0.20157401  1
  P  P420  1  0.59358527  0.62650800  0.04834071  1
  P  P421  1  0.09173879  0.12444817  0.20268600  1
  P  P422  1  0.09142058  0.12450976  0.70267664  1
  O  O423  1  0.09816422  0.12391986  0.36510532  1
  O  O424  1  0.09711473  0.12436838  0.86486753  1
  O  O425  1  0.39783616  0.87062137  0.61307269  1
  O  O426  1  0.16093796  0.02553425  0.13567963  1
  O  O427  1  0.15957349  0.02486098  0.63682036  1
  O  O428  1  0.15957320  0.52474285  0.13528378  1
  O  O429  1  0.15911602  0.52459067  0.63546674  1
  O  O430  1  0.90139103  0.87489327  0.13613090  1
  O  O431  1  0.90222476  0.87498487  0.63596379  1
  O  O432  1  0.04782883  0.37504433  0.35849732  1
  O  O433  1  0.04854600  0.37516429  0.85864676  1
  O  O434  1  0.04834260  0.87458070  0.35871167  1
  O  O435  1  0.83930300  0.77561622  0.36635192  1
  O  O436  1  0.84038261  0.77518528  0.86494261  1
  O  O437  1  0.84136368  0.47536669  0.36194757  1
  O  O438  1  0.83841689  0.47526546  0.86289683  1
  O  O439  1  0.83921417  0.97477697  0.36636668  1
  O  O440  1  0.84004103  0.97502065  0.86512050  1
  O  O441  1  0.90290091  0.37460225  0.13556422  1
  O  O442  1  0.90203713  0.37535543  0.63369518  1
  O  O443  1  0.90087000  0.87521951  0.13736239  1
  O  O444  1  0.90019092  0.87532953  0.63647128  1
  O  O445  1  0.33098901  0.27719232  0.89648552  1
  O  O446  1  0.90240395  0.37559670  0.13603807  1
  O  O447  1  0.90192555  0.37467578  0.63518332  1
  O  O448  1  0.90133885  0.87431932  0.13707840  1
  O  O449  1  0.09861397  0.62507876  0.36386929  1
  O  O450  1  0.09777174  0.62499160  0.86404390  1
  O  O451  1  0.83922370  0.27507415  0.36184446  1
  O  O452  1  0.83946049  0.27543659  0.86271795  1
  O  O453  1  0.83936505  0.77561899  0.36476959  1
  O  O454  1  0.65745998  0.52140662  0.61530622  1
  O  O455  1  0.15952595  0.22482926  0.13737942  1
  O  O456  1  0.16001171  0.22422215  0.63715923  1
  O  O457  1  0.16087647  0.72409677  0.13440480  1
  O  O458  1  0.15911616  0.72399109  0.63544683  1
  O  O459  1  0.95115781  0.12461854  0.64130797  1
  O  O460  1  0.95216904  0.62504854  0.14149989  1
  O  O461  1  0.95145408  0.62516308  0.64135210  1
  O  O462  1  0.45269883  0.12469577  0.10781682  1
  O  O463  1  0.45252841  0.12433746  0.60874881  1
  O  O464  1  0.45309085  0.62503892  0.10861729  1
  O  O465  1  0.45311948  0.63095409  0.59995414  1
  O  O466  1  0.54690022  0.37495887  0.39137983  1
  O  O467  1  0.54683415  0.36899489  0.90003469  1
  O  O468  1  0.54730334  0.87529512  0.39218359  1
  O  O469  1  0.33921144  0.77627053  0.38412311  1
  O  O470  1  0.33865990  0.77501501  0.88581849  1
  O  O471  1  0.33616801  0.47589328  0.38047978  1
  O  O472  1  0.32961784  0.47243988  0.89720508  1
  O  O473  1  0.33896712  0.97606514  0.38328968  1
  O  O474  1  0.33887557  0.97560499  0.88544446  1
  O  O475  1  0.90203164  0.37457329  0.63369800  1
  O  O476  1  0.90086202  0.87474805  0.13736833  1
  O  O477  1  0.90018728  0.87456731  0.63647559  1
  O  O478  1  0.04968826  0.37488560  0.35890965  1
  O  O479  1  0.04613661  0.37497187  0.85774880  1
  O  O480  1  0.04839272  0.87484324  0.35858134  1
  O  O481  1  0.04871603  0.87473071  0.85809571  1
  O  O482  1  0.40002828  0.37456841  0.12248397  1
  O  O483  1  0.39305251  0.37598353  0.60723267  1
  O  O484  1  0.40022060  0.87462933  0.11271376  1
  O  O485  1  0.83950562  0.97503425  0.36623360  1
  O  O486  1  0.84025669  0.97497897  0.86535042  1
  O  O487  1  0.90239942  0.37436326  0.13604191  1
  O  O488  1  0.90180608  0.37562041  0.63467592  1
  O  O489  1  0.90111791  0.87560673  0.13725308  1
  O  O490  1  0.33876002  0.97316773  0.38460305  1
  O  O491  1  0.33919896  0.97372187  0.38412643  1
  O  O492  1  0.33867891  0.97498523  0.88579660  1
  O  O493  1  0.95129345  0.12435803  0.14190240  1
  O  O494  1  0.95096127  0.12465524  0.64193959  1
  O  O495  1  0.95108308  0.62511823  0.14139164  1
  O  O496  1  0.95020275  0.62415321  0.64242666  1
  O  O497  1  0.45332965  0.12509774  0.10809836  1
  O  O498  1  0.45152287  0.11843187  0.60069521  1
  O  O499  1  0.45280902  0.62478366  0.10838062  1
  O  O500  1  0.16054791  0.02604442  0.13517900  1
  O  O501  1  0.15738252  0.02485936  0.63586178  1
  O  O502  1  0.15946327  0.52483834  0.13724816  1
  O  O503  1  0.15936766  0.52564846  0.63692684  1
  O  O504  1  0.66292540  0.22286638  0.11410439  1
  O  O505  1  0.65392275  0.23309879  0.61535641  1
  O  O506  1  0.65998903  0.72756203  0.12247193  1
  O  O507  1  0.66332340  0.72117855  0.61246665  1
  O  O508  1  0.33658033  0.27453800  0.37988120  1
  O  O509  1  0.33213960  0.27657169  0.89616261  1
  O  O510  1  0.90070274  0.87425492  0.63659188  1
  O  O511  1  0.04889614  0.37492780  0.35922655  1
  O  O512  1  0.04683146  0.37496090  0.85816002  1
  O  O513  1  0.04856134  0.87462836  0.35863652  1
  O  O514  1  0.04903780  0.87453151  0.85822992  1
  O  O515  1  0.40015751  0.37536635  0.12107600  1
  O  O516  1  0.39155606  0.37687919  0.60690556  1
  O  O517  1  0.40025360  0.87403608  0.11265265  1
  O  O518  1  0.33807494  0.47647071  0.89033447  1
  O  O519  1  0.33762232  0.97336508  0.38594076  1
  O  O520  1  0.83900342  0.47541645  0.86353050  1
  O  O521  1  0.33900025  0.97480129  0.88597180  1
  O  O522  1  0.95141854  0.12429994  0.14199328  1
  O  O523  1  0.95140681  0.12454803  0.64151698  1
  O  O524  1  0.95149276  0.62513016  0.14132336  1
  O  O525  1  0.95046427  0.62444662  0.64203374  1
  O  O526  1  0.45319025  0.12488923  0.10812550  1
  O  O527  1  0.45245602  0.11826212  0.60054646  1
  O  O528  1  0.45277159  0.62467714  0.10808457  1
  O  O529  1  0.45072191  0.62521189  0.60643453  1
  O  O530  1  0.54566638  0.37374683  0.39003970  1
  O  O531  1  0.04968791  0.37511099  0.35891133  1
  O  O532  1  0.04613916  0.37502824  0.85774500  1
  O  O533  1  0.04838648  0.87515926  0.35858156  1
  O  O534  1  0.04871371  0.87527068  0.85809632  1
  O  O535  1  0.40002620  0.37541456  0.12248275  1
  O  O536  1  0.39305445  0.37401464  0.60724798  1
  O  O537  1  0.40022531  0.87540689  0.11271236  1
  O  O538  1  0.39654521  0.87632011  0.61249635  1
  O  O539  1  0.15925670  0.02437806  0.63654695  1
  O  O540  1  0.15993111  0.52463857  0.13474487  1
  O  O541  1  0.15875266  0.52428278  0.63556975  1
  O  O542  1  0.66255412  0.22286629  0.11426860  1
  O  O543  1  0.66908196  0.22106731  0.60441967  1
  O  O544  1  0.66028452  0.72655714  0.11963465  1
  O  O545  1  0.66196347  0.72178740  0.61376123  1
  O  O546  1  0.33656065  0.27432343  0.38227672  1
  O  O547  1  0.32872332  0.27805677  0.89754812  1
  O  O548  1  0.33923355  0.77327365  0.38323746  1
  O  O549  1  0.60578584  0.11395507  0.88978014  1
  O  O550  1  0.60094401  0.62013148  0.38699264  1
  O  O551  1  0.60448421  0.63342536  0.88905398  1
  O  O552  1  0.65999226  0.02242315  0.12246287  1
  O  O553  1  0.66332104  0.02880201  0.61241908  1
  O  O554  1  0.66292097  0.52711830  0.11412177  1
  O  O555  1  0.65393585  0.51689846  0.61533941  1
  O  O556  1  0.15945617  0.22515730  0.13726094  1
  O  O557  1  0.15935084  0.22435619  0.63693034  1
  O  O558  1  0.16054229  0.72394063  0.13521070  1
  O  O559  1  0.33903971  0.77489524  0.38317666  1
  O  O560  1  0.33821151  0.77470110  0.88590440  1
  O  O561  1  0.33657778  0.47543349  0.37987509  1
  O  O562  1  0.33214373  0.47342241  0.89616432  1
  O  O563  1  0.33943278  0.97446875  0.38371295  1
  O  O564  1  0.15737470  0.72514235  0.63587039  1
  O  O565  1  0.09697864  0.12418702  0.36483735  1
  O  O566  1  0.09652907  0.12438702  0.86502599  1
  O  O567  1  0.09697623  0.62571319  0.36484844  1
  O  O568  1  0.09653810  0.62559793  0.86504809  1
  O  O569  1  0.84159027  0.27487630  0.36248024  1
  O  O570  1  0.83802845  0.27507737  0.86247665  1
  O  O571  1  0.83913064  0.77545254  0.36645809  1
  O  O572  1  0.83995083  0.77500454  0.86479527  1
  O  O573  1  0.84160504  0.47514221  0.36248444  1
  O  O574  1  0.16077654  0.52507266  0.13816469  1
  O  O575  1  0.16054539  0.52544560  0.63728823  1
  O  O576  1  0.66237676  0.22336727  0.11405404  1
  O  O577  1  0.66134301  0.22469756  0.61309605  1
  O  O578  1  0.66070267  0.72725600  0.12206159  1
  O  O579  1  0.66188731  0.72647657  0.60969679  1
  O  O580  1  0.33930061  0.27274304  0.37792729  1
  O  O581  1  0.33808316  0.27353095  0.89034547  1
  O  O582  1  0.33762801  0.77663691  0.38594612  1
  O  O583  1  0.84088325  0.77458798  0.86454088  1
  O  O584  1  0.83922136  0.47492677  0.36184105  1
  O  O585  1  0.83946055  0.47455443  0.86270697  1
  O  O586  1  0.83937745  0.97439124  0.36476522  1
  O  O587  1  0.83984239  0.97423260  0.86431922  1
  O  O588  1  0.90184310  0.37392334  0.13489244  1
  O  O589  1  0.90288274  0.37436366  0.63514292  1
  O  O590  1  0.90138782  0.87509428  0.13614458  1
  O  O591  1  0.90220911  0.87496706  0.63596544  1
  O  O592  1  0.04783155  0.37495444  0.35849299  1
  O  O593  1  0.54804825  0.87567083  0.89078652  1
  O  O594  1  0.59980762  0.12724427  0.38645702  1
  O  O595  1  0.90128073  0.87403790  0.63663231  1
  O  O596  1  0.04817672  0.37497703  0.35899911  1
  O  O597  1  0.04745958  0.37501637  0.85856477  1
  O  O598  1  0.04869480  0.87453167  0.35863789  1
  O  O599  1  0.04920865  0.87433120  0.85841552  1
  O  O600  1  0.40049339  0.37648054  0.11974464  1
  O  O601  1  0.39195815  0.37933748  0.60773117  1
  O  O602  1  0.40063375  0.87357801  0.11280453  1
  O  O603  1  0.54794978  0.37606953  0.90198179  1
  O  O604  1  0.54774219  0.87351166  0.39297264  1
  O  O605  1  0.15927920  0.22528606  0.13696803  1
  O  O606  1  0.15904446  0.22457084  0.63633038  1
  O  O607  1  0.16084855  0.72407868  0.13547387  1
  O  O608  1  0.33831941  0.97516162  0.88591778  1
  O  O609  1  0.95131941  0.12450322  0.14173878  1
  O  O610  1  0.95045104  0.12502222  0.64214471  1
  O  O611  1  0.95088638  0.62530905  0.14128564  1
  O  O612  1  0.94989523  0.62425377  0.64241698  1
  O  O613  1  0.45317133  0.12510977  0.10828762  1
  O  O614  1  0.45042319  0.11867619  0.60106230  1
  O  O615  1  0.45280589  0.62470022  0.10812200  1
  O  O616  1  0.44872256  0.62919949  0.60260913  1
  O  O617  1  0.54540836  0.37422414  0.38837237  1
  O  O618  1  0.45280806  0.12528774  0.10810778  1
  O  O619  1  0.44871221  0.12078571  0.60260021  1
  O  O620  1  0.45316907  0.62487888  0.10830564  1
  O  O621  1  0.45047232  0.63135386  0.60109566  1
  O  O622  1  0.54544220  0.37575749  0.38837812  1
  O  O623  1  0.54718273  0.37448103  0.90846386  1
  O  O624  1  0.33877152  0.77682309  0.38460506  1
  O  O625  1  0.33899374  0.77519696  0.88598465  1
  O  O626  1  0.33657698  0.47565170  0.38224362  1
  O  O627  1  0.83803823  0.47490593  0.86243728  1
  O  O628  1  0.83914134  0.97454855  0.36643804  1
  O  O629  1  0.83994637  0.97498324  0.86475248  1
  O  O630  1  0.90262685  0.37498300  0.13560973  1
  O  O631  1  0.90208908  0.37492462  0.63344566  1
  O  O632  1  0.90084460  0.87497143  0.13740087  1
  O  O633  1  0.89984894  0.87494909  0.63627856  1
  O  O634  1  0.04991765  0.37500908  0.35878721  1
  O  O635  1  0.04590401  0.37499852  0.85789457  1
  O  O636  1  0.04833555  0.87499729  0.35855469  1
  O  O637  1  0.33865509  0.77530392  0.88690372  1
  O  O638  1  0.33727740  0.47323714  0.38726607  1
  O  O639  1  0.32964395  0.47091218  0.89733832  1
  O  O640  1  0.33923941  0.97637027  0.38370783  1
  O  O641  1  0.33818225  0.97547780  0.88603102  1
  O  O642  1  0.95165649  0.12457598  0.14128334  1
  O  O643  1  0.09661666  0.62541699  0.86484039  1
  O  O644  1  0.84134955  0.27463468  0.36195908  1
  O  O645  1  0.83840715  0.27472861  0.86291452  1
  O  O646  1  0.83920023  0.77523098  0.36638257  1
  O  O647  1  0.84004732  0.77496506  0.86516430  1
  O  O648  1  0.84093704  0.47453758  0.36341573  1
  O  O649  1  0.83745341  0.47443013  0.86206612  1
  O  O650  1  0.83931643  0.97439196  0.36633960  1
  O  O651  1  0.84038162  0.97480080  0.86490676  1
  O  O652  1  0.90290318  0.37534617  0.13556211  1
  O  O653  1  0.15909823  0.22542010  0.63546315  1
  O  O654  1  0.16093248  0.72445941  0.13569023  1
  O  O655  1  0.15956457  0.72513340  0.63682872  1
  O  O656  1  0.16090511  0.02589808  0.13433168  1
  O  O657  1  0.15917156  0.02604327  0.63546007  1
  O  O658  1  0.15951453  0.52516181  0.13736306  1
  O  O659  1  0.16001049  0.52577779  0.63715966  1
  O  O660  1  0.66261200  0.22333920  0.11381127  1
  O  O661  1  0.65747910  0.22858837  0.61530944  1
  O  O662  1  0.66068259  0.72738433  0.12239117  1
  O  O663  1  0.66175633  0.72662050  0.61158299  1
  O  O664  1  0.33752356  0.27481456  0.37860647  1
  O  O665  1  0.34017959  0.27508717  0.88869541  1
  O  O666  1  0.09750102  0.12389104  0.36473521  1
  O  O667  1  0.09717419  0.12397818  0.86499454  1
  O  O668  1  0.09737493  0.62513353  0.36378214  1
  O  O669  1  0.09737740  0.62495644  0.86465354  1
  O  O670  1  0.84057831  0.27440757  0.36215660  1
  O  O671  1  0.66192383  0.02353161  0.60965310  1
  O  O672  1  0.66237270  0.52663223  0.11404959  1
  O  O673  1  0.66133691  0.52529908  0.61309224  1
  O  O674  1  0.16078285  0.22492644  0.13817113  1
  O  O675  1  0.16053854  0.22455597  0.63728313  1
  O  O676  1  0.16062831  0.72438501  0.13524917  1
  O  O677  1  0.16016214  0.72423006  0.63567038  1
  O  O678  1  0.09773627  0.12367260  0.36481031  1
  O  O679  1  0.09714887  0.12393847  0.86493768  1
  O  O680  1  0.09825707  0.62478116  0.36325951  1
  O  O681  1  0.09817153  0.62438267  0.86408410  1
  O  O682  1  0.83971382  0.27453252  0.36225136  1
  O  O683  1  0.83937007  0.27476391  0.86351986  1
  O  O684  1  0.83955717  0.77502768  0.36598898  1
  O  O685  1  0.84016614  0.77512691  0.86541503  1
  O  O686  1  0.04854924  0.37484211  0.85864030  1
  O  O687  1  0.04835050  0.87543412  0.35871129  1
  O  O688  1  0.04885357  0.87539265  0.85869083  1
  O  O689  1  0.40093163  0.37263421  0.11991187  1
  O  O690  1  0.54747196  0.87565670  0.89124599  1
  O  O691  1  0.59909591  0.12335937  0.38631770  1
  O  O692  1  0.83874196  0.27601342  0.36538884  1
  O  O693  1  0.83901897  0.27530595  0.86322347  1
  O  O694  1  0.83999222  0.77562885  0.36589820  1
  O  O695  1  0.84119367  0.77506628  0.86497316  1
  O  O696  1  0.83973045  0.47546532  0.36225404  1
  O  O697  1  0.83936821  0.47522433  0.86350253  1
  O  O698  1  0.83959803  0.97500001  0.36601166  1
  O  O699  1  0.84016854  0.97484233  0.86533804  1
  O  O700  1  0.90192180  0.37404083  0.13605936  1
  O  O701  1  0.90192913  0.37525718  0.63518516  1
  O  O702  1  0.65973534  0.72736174  0.12200940  1
  O  O703  1  0.66363265  0.71799215  0.61322884  1
  O  O704  1  0.33636353  0.27443483  0.37988829  1
  O  O705  1  0.33143221  0.27679234  0.89627360  1
  O  O706  1  0.33943844  0.77517738  0.38366930  1
  O  O707  1  0.33824775  0.77478321  0.88600429  1
  O  O708  1  0.33634662  0.47555246  0.37988556  1
  O  O709  1  0.33143691  0.47320007  0.89627647  1
  O  O710  1  0.33942591  0.97481167  0.38366301  1
  O  O711  1  0.33824969  0.97521436  0.88599224  1
  O  O712  1  0.33886775  0.77439495  0.88545556  1
  O  O713  1  0.33692958  0.47526044  0.37904267  1
  O  O714  1  0.33763082  0.47421870  0.89151742  1
  O  O715  1  0.39662376  0.87219064  0.61258243  1
  O  O716  1  0.16093028  0.02575318  0.13542997  1
  O  O717  1  0.15873835  0.02436305  0.63637094  1
  O  O718  1  0.15971234  0.52467376  0.13572724  1
  O  O719  1  0.15916665  0.52491743  0.63618601  1
  O  O720  1  0.66292810  0.22253863  0.11431820  1
  O  O721  1  0.66530025  0.22431656  0.60660649  1
  O  O722  1  0.83875140  0.47398527  0.36538339  1
  O  O723  1  0.83901619  0.47468152  0.86320389  1
  O  O724  1  0.84000173  0.97438579  0.36586527  1
  O  O725  1  0.84119643  0.97490112  0.86489497  1
  O  O726  1  0.90191823  0.37592617  0.13605942  1
  O  O727  1  0.66272313  0.22324797  0.11272429  1
  O  O728  1  0.90184553  0.37606451  0.13489052  1
  O  O729  1  0.90288703  0.37562601  0.63513775  1
  O  O730  1  0.66075889  0.72637503  0.11628027  1
  O  O731  1  0.66182252  0.72547447  0.61396393  1
  O  O732  1  0.95109296  0.12488772  0.14137641  1
  O  O733  1  0.95020397  0.12584506  0.64241917  1
  O  O734  1  0.95128814  0.62564100  0.14191299  1
  O  O735  1  0.95095795  0.62534416  0.64194901  1
  O  O736  1  0.45281318  0.12520643  0.10836930  1
  O  O737  1  0.44955132  0.12323178  0.60412064  1
  O  O738  1  0.45332410  0.62488903  0.10810896  1
  O  O739  1  0.45152690  0.63156466  0.60069909  1
  O  O740  1  0.54531585  0.37620337  0.38948597  1
  O  O741  1  0.54788317  0.37522465  0.90514229  1
  O  O742  1  0.60270339  0.11822175  0.88808278  1
  O  O743  1  0.59978527  0.62784638  0.38177300  1
  O  O744  1  0.39654323  0.87368380  0.61249431  1
  O  O745  1  0.16085060  0.02590911  0.13543089  1
  O  O746  1  0.15813704  0.02458938  0.63619166  1
  O  O747  1  0.15927200  0.52470271  0.13695369  1
  O  O748  1  0.15906081  0.52543712  0.63633675  1
  O  O749  1  0.66303559  0.22250403  0.11394600  1
  O  O750  1  0.65976376  0.22905421  0.61052503  1
  O  O751  1  0.65972176  0.72710765  0.12139682  1
  O  O752  1  0.66337154  0.71827896  0.61350534  1
  O  O753  1  0.33606503  0.27434152  0.38074155  1
  O  O754  1  0.54804231  0.87431345  0.89078016  1
  O  O755  1  0.59978421  0.12217387  0.38171145  1
  O  O756  1  0.60657885  0.11385639  0.89025236  1
  O  O757  1  0.59982067  0.62277003  0.38646156  1
  O  O758  1  0.60269532  0.63177564  0.88809889  1
  O  O759  1  0.66068496  0.02260399  0.12237980  1
  O  O760  1  0.66193118  0.02330620  0.61144640  1
  O  O761  1  0.66260970  0.52665290  0.11382281  1
  O  O762  1  0.90180681  0.37431929  0.63467536  1
  O  O763  1  0.90112070  0.87437263  0.13725891  1
  O  O764  1  0.15812655  0.72541415  0.63620337  1
  O  O765  1  0.09738411  0.12478723  0.36378166  1
  O  O766  1  0.09737452  0.12502254  0.86465284  1
  O  O767  1  0.09749928  0.62603590  0.36474870  1
  O  O768  1  0.09717310  0.62599832  0.86499640  1
  O  O769  1  0.83958162  0.27592494  0.36475916  1
  O  O770  1  0.83816845  0.27549586  0.86287090  1
  O  O771  1  0.83962331  0.77574434  0.36610586  1
  O  O772  1  0.84080416  0.77519094  0.86497683  1
  O  O773  1  0.84058989  0.47559326  0.36215223  1
  O  O774  1  0.39399855  0.36380941  0.60980805  1
  O  O775  1  0.40089920  0.87665834  0.11368126  1
  O  O776  1  0.39784249  0.87938882  0.61306930  1
  O  O777  1  0.16063418  0.02561236  0.13523716  1
  O  O778  1  0.16017958  0.02577989  0.63567025  1
  O  O779  1  0.16094397  0.72447010  0.13551456  1
  O  O780  1  0.15923294  0.72562657  0.63654711  1
  O  O781  1  0.09861340  0.12487386  0.36386557  1
  O  O782  1  0.09777003  0.12499735  0.86404747  1
  O  O783  1  0.09815738  0.62605083  0.36511572  1
  O  O784  1  0.09711175  0.62562828  0.86487208  1
  O  O785  1  0.83906246  0.27553849  0.36432962  1
  O  O786  1  0.84043032  0.27485415  0.86317782  1
  O  O787  1  0.84042106  0.77475087  0.36472482  1
  O  O788  1  0.60216672  0.12061463  0.88692748  1
  O  O789  1  0.59906989  0.62736356  0.38012975  1
  O  O790  1  0.60600314  0.63617127  0.89021097  1
  O  O791  1  0.66075334  0.02362681  0.11627349  1
  O  O792  1  0.66181813  0.02451753  0.61395642  1
  O  O793  1  0.66271774  0.52674819  0.11274102  1
  O  O794  1  0.67033177  0.52906126  0.60263409  1
  O  O795  1  0.15957342  0.22525472  0.13530129  1
  O  O796  1  0.90133226  0.87565474  0.13710536  1
  O  O797  1  0.90125002  0.87574660  0.63662714  1
  O  O798  1  0.04817904  0.37500116  0.35900236  1
  O  O799  1  0.04746070  0.37498378  0.85856540  1
  O  O800  1  0.04871792  0.87549193  0.35862723  1
  O  O801  1  0.04920363  0.87565809  0.85840718  1
  O  O802  1  0.40048715  0.37349368  0.11974769  1
  O  O803  1  0.39195412  0.37064407  0.60772902  1
  O  O804  1  0.40064017  0.87644473  0.11280227  1
  O  O805  1  0.39687781  0.87887504  0.61263710  1
  O  O806  1  0.66309762  0.22260040  0.11380458  1
  O  O807  1  0.65421354  0.23364273  0.61484766  1
  O  O808  1  0.84044090  0.47513650  0.86316978  1
  O  O809  1  0.84043058  0.97525280  0.36471179  1
  O  O810  1  0.84090448  0.97542031  0.86451944  1
  O  O811  1  0.67035500  0.22090999  0.60265637  1
  O  O812  1  0.04885340  0.87461071  0.85869093  1
  O  O813  1  0.40092578  0.37736819  0.11989924  1
  O  O814  1  0.39399577  0.38617802  0.60980262  1
  O  O815  1  0.40090133  0.87336167  0.11368415  1
  O  O816  1  0.32961791  0.27755460  0.89720045  1
  O  O817  1  0.33897500  0.77392767  0.38328855  1
  O  O818  1  0.95117903  0.12462104  0.14169447  1
  O  O819  1  0.94995210  0.12549452  0.64224859  1
  O  O820  1  0.95117782  0.62537902  0.14170754  1
  O  O821  1  0.94997468  0.62451395  0.64226490  1
  O  O822  1  0.45296932  0.12521935  0.10827494  1
  O  O823  1  0.44916487  0.12043488  0.60226382  1
  O  O824  1  0.45296797  0.62477552  0.10829186  1
  O  O825  1  0.44918287  0.62951845  0.60227547  1
  O  O826  1  0.54549455  0.37499988  0.38772526  1
  O  O827  1  0.54728316  0.37499556  0.90862908  1
  O  O828  1  0.32872765  0.47194169  0.89756158  1
  O  O829  1  0.33921816  0.97671631  0.38323807  1
  O  O830  1  0.33906021  0.97568114  0.88531535  1
  O  O831  1  0.54842839  0.87499085  0.39416831  1
  O  O832  1  0.54744504  0.87499356  0.89045048  1
  O  O833  1  0.60114433  0.12967883  0.38687700  1
  O  O834  1  0.60488511  0.11482949  0.88938361  1
  O  O835  1  0.60115266  0.62036180  0.38688209  1
  O  O836  1  0.60488051  0.63514407  0.88939678  1
  O  O837  1  0.65973780  0.02262596  0.12200634  1
  O  O838  1  0.66362722  0.03201997  0.61320359  1
  O  O839  1  0.66309531  0.52738145  0.11381652  1
  O  O840  1  0.65426644  0.51634895  0.61485805  1
  O  O841  1  0.90071077  0.87563921  0.63658784  1
  O  O842  1  0.04889432  0.37506395  0.35923194  1
  O  O843  1  0.04683360  0.37503931  0.85815914  1
  O  O844  1  0.04855738  0.87537563  0.35863505  1
  O  O845  1  0.04903654  0.87547102  0.85823108  1
  O  O846  1  0.40016253  0.37462616  0.12107699  1
  O  O847  1  0.39156144  0.37312657  0.60691098  1
  O  O848  1  0.40025928  0.87599566  0.11265258  1
  O  O849  1  0.39662333  0.87780968  0.61258110  1
  O  O850  1  0.44955146  0.62676979  0.60411896  1
  O  O851  1  0.54529747  0.37378243  0.38947973  1
  O  O852  1  0.54788001  0.37476474  0.90514045  1
  O  O853  1  0.54795109  0.87351601  0.39351968  1
  O  O854  1  0.54775446  0.87445822  0.89056278  1
  O  O855  1  0.59978541  0.12376913  0.38261596  1
  O  O856  1  0.60653259  0.11352835  0.89024337  1
  O  O857  1  0.60026707  0.62147525  0.38636131  1
  O  O858  1  0.60388870  0.63371372  0.88902375  1
  O  O859  1  0.66037331  0.02230614  0.12268714  1
  O  O860  1  0.95150380  0.12486349  0.14131846  1
  O  O861  1  0.15937660  0.22517438  0.13718379  1
  O  O862  1  0.15889094  0.22446101  0.63669126  1
  O  O863  1  0.16078325  0.72403052  0.13558166  1
  O  O864  1  0.15757606  0.72524283  0.63606368  1
  O  O865  1  0.09652210  0.12421503  0.36436270  1
  O  O866  1  0.09661176  0.12456082  0.86482837  1
  O  O867  1  0.09722118  0.62590862  0.36480704  1
  O  O868  1  0.09684609  0.62573985  0.86500901  1
  O  O869  1  0.84092694  0.27546468  0.36343219  1
  O  O870  1  0.83745330  0.27556378  0.86208497  1
  O  O871  1  0.66009439  0.72685346  0.12140957  1
  O  O872  1  0.66236014  0.72012695  0.61349525  1
  O  O873  1  0.33614802  0.27409036  0.38050976  1
  O  O874  1  0.83899748  0.27457450  0.86354258  1
  O  O875  1  0.83949069  0.77497457  0.36624082  1
  O  O876  1  0.84026286  0.77500682  0.86539674  1
  O  O877  1  0.83959162  0.47407508  0.36474744  1
  O  O878  1  0.83816605  0.47449493  0.86285136  1
  O  O879  1  0.83963834  0.97426697  0.36610215  1
  O  O880  1  0.84079976  0.97479434  0.86493919  1
  O  O881  1  0.16059211  0.02603391  0.13475646  1
  O  O882  1  0.15813174  0.02542153  0.63573341  1
  O  O883  1  0.15937830  0.52499668  0.13718147  1
  O  O884  1  0.15969332  0.52583330  0.63704821  1
  O  O885  1  0.66259087  0.22316076  0.11385576  1
  O  O886  1  0.65601831  0.23058469  0.61506635  1
  O  O887  1  0.66037152  0.72768464  0.12269211  1
  O  O888  1  0.66244490  0.72452479  0.61171395  1
  O  O889  1  0.33693651  0.27471961  0.37905564  1
  O  O890  1  0.33763418  0.27577774  0.89150824  1
  O  O891  1  0.45251914  0.62565605  0.60875383  1
  O  O892  1  0.54690882  0.37504080  0.39138598  1
  O  O893  1  0.54684267  0.38100079  0.90003771  1
  O  O894  1  0.54729915  0.87469908  0.39218421  1
  O  O895  1  0.54747037  0.87433757  0.89124906  1
  O  O896  1  0.59907469  0.12263512  0.38008549  1
  O  O897  1  0.60599085  0.11380738  0.89019619  1
  O  O898  1  0.59910133  0.62665442  0.38632660  1
  O  O899  1  0.60215702  0.62938657  0.88694069  1
  O  O900  1  0.66070040  0.02274317  0.12205507  1
  O  O901  1  0.54718206  0.37550985  0.90846145  1
  O  O902  1  0.54825655  0.87414109  0.39394969  1
  O  O903  1  0.54744119  0.87453407  0.89038700  1
  O  O904  1  0.60074074  0.12674216  0.38461366  1
  O  O905  1  0.45239501  0.63165912  0.60053470  1
  O  O906  1  0.54567637  0.37622342  0.39003813  1
  O  O907  1  0.54794926  0.37392440  0.90198198  1
  O  O908  1  0.54774623  0.87648494  0.39298669  1
  O  O909  1  0.54825715  0.87585681  0.39394958  1
  O  O910  1  0.54743634  0.87545899  0.89038798  1
  O  O911  1  0.60092964  0.12990066  0.38698387  1
  O  O912  1  0.60448821  0.11655509  0.88904008  1
  O  O913  1  0.60077132  0.62328805  0.38464928  1
  O  O914  1  0.60578001  0.63602487  0.88979272  1
  O  O915  1  0.65972687  0.02288111  0.12139278  1
  O  O916  1  0.66337043  0.03171559  0.61346658  1
  O  O917  1  0.66301720  0.52747137  0.11396233  1
  O  O918  1  0.65987740  0.52089794  0.61043938  1
  O  O919  1  0.33944761  0.77552615  0.38371432  1
  O  O920  1  0.33831876  0.77484452  0.88592529  1
  O  O921  1  0.33617877  0.47558656  0.38064571  1
  O  O922  1  0.33099404  0.47280234  0.89648578  1
  O  O923  1  0.33902937  0.97509856  0.38317535  1
  O  O924  1  0.33822412  0.97530239  0.88589806  1
  O  O925  1  0.95088846  0.12469075  0.14127980  1
  O  O926  1  0.94988961  0.12574667  0.64240639  1
  O  O927  1  0.95132379  0.62549355  0.14173878  1
  O  O928  1  0.95045164  0.62497738  0.64215677  1
  O  O929  1  0.66244083  0.02547339  0.61168914  1
  O  O930  1  0.66257924  0.52682393  0.11386551  1
  O  O931  1  0.65601786  0.51941771  0.61505661  1
  O  O932  1  0.15937903  0.22499474  0.13719253  1
  O  O933  1  0.15968184  0.22417015  0.63705006  1
  O  O934  1  0.16058440  0.72395375  0.13479501  1
  O  O935  1  0.15812079  0.72458266  0.63574154  1
  O  O936  1  0.09722461  0.12401690  0.36479743  1
  O  O937  1  0.09684082  0.12423093  0.86500018  1
  O  O938  1  0.09651605  0.62570332  0.36437366  1
  O  O939  1  0.66292137  0.52744736  0.11432851  1
  O  O940  1  0.66531138  0.52568213  0.60660482  1
  O  O941  1  0.15972358  0.22531358  0.13574947  1
  O  O942  1  0.15915639  0.22508507  0.63618208  1
  O  O943  1  0.16092552  0.72423748  0.13547419  1
  O  O944  1  0.15872661  0.72564373  0.63638071  1
  O  O945  1  0.09823859  0.12501978  0.36325974  1
  O  O946  1  0.09816783  0.12560640  0.86409789  1
  O  O947  1  0.09771325  0.62624305  0.36482281  1
  O  O948  1  0.09715255  0.62604108  0.86494395  1
  O  O949  1  0.66905094  0.52890527  0.60441213  1
  O  O950  1  0.15996203  0.22534609  0.13483455  1
  O  O951  1  0.15875362  0.22573389  0.63556945  1
  O  O952  1  0.15893978  0.52555899  0.63671781  1
  O  O953  1  0.33728495  0.27674931  0.38725482  1
  O  O954  1  0.32965317  0.27908494  0.89734512  1
  O  O955  1  0.33923980  0.77363032  0.38372272  1
  O  O956  1  0.33817767  0.77452298  0.88604156  1
  O  O957  1  0.33929673  0.47724859  0.37793999  1
  O  O958  1  0.33905267  0.77431390  0.88533230  1
  O  O959  1  0.33753051  0.47515892  0.37860479  1
  O  O960  1  0.34018363  0.47491055  0.88869539  1
  O  O961  1  0.83982856  0.77577102  0.86433355  1
  O  O962  1  0.83907008  0.47445974  0.36433128  1
  O  O963  1  0.33865647  0.97469693  0.88690293  1
  O  O964  1  0.95216517  0.12495780  0.14150223  1
  O  O965  1  0.95146189  0.12484197  0.64135435  1
  O  O966  1  0.95166039  0.62542692  0.14128381  1
  O  O967  1  0.95115178  0.62539208  0.64131035  1
  O  O968  1  0.45309113  0.12495498  0.10860962  1
  O  O969  1  0.45315972  0.11899280  0.59996710  1
  O  O970  1  0.45269034  0.62529882  0.10781782  1
  O  O971  1  0.39688698  0.87112520  0.61263211  1
  O  O972  1  0.16095484  0.02551756  0.13547266  1
  O  O973  1  0.95049445  0.12557240  0.64200640  1
  O  O974  1  0.95140628  0.62569911  0.14199716  1
  O  O975  1  0.95139127  0.62543982  0.64153690  1
  O  O976  1  0.45277633  0.12532668  0.10806602  1
  O  O977  1  0.45072801  0.12479827  0.60645487  1
  O  O978  1  0.45318629  0.62510365  0.10814651  1
  O  O979  1  0.54795277  0.87648446  0.39351953  1
  O  O980  1  0.54774974  0.87552150  0.89056138  1
  O  O981  1  0.60026030  0.12855047  0.38634980  1
  O  O982  1  0.60388928  0.11627520  0.88901141  1
  O  O983  1  0.59980913  0.62625610  0.38263899  1
  O  O984  1  0.60653194  0.63646225  0.89025929  1
  O  O985  1  0.66009648  0.02313510  0.12140260  1
  O  O986  1  0.66236007  0.02987343  0.61347245  1
  O  O987  1  0.60656934  0.63611924  0.89027802  1
  O  O988  1  0.66028689  0.02343434  0.11961971  1
  O  O989  1  0.66194468  0.02819704  0.61374936  1
  O  O990  1  0.66254425  0.52712414  0.11429857  1
  O  O991  1  0.40015023  0.37498632  0.12213981  1
  O  O992  1  0.39206979  0.37499918  0.60678392  1
  O  O993  1  0.40029754  0.87501376  0.11278800  1
  O  O994  1  0.39673842  0.87499591  0.61265889  1
  O  O995  1  0.16078207  0.02595793  0.13553467  1
  O  O996  1  0.15756762  0.02476944  0.63604876  1
  O  O997  1  0.15937961  0.52481232  0.13716069  1
  O  O998  1  0.04843085  0.87500340  0.85788996  1
