# generated using pymatgen
data_Li15Fe16(PO4)16
_symmetry_space_group_name_H-M   'P 1'
_cell_length_a   10.33860738
_cell_length_b   12.50265359
_cell_length_c   9.47725131
_cell_angle_alpha   89.99999761
_cell_angle_beta   89.99983417
_cell_angle_gamma   90.00001831
_symmetry_Int_Tables_number   1
_chemical_formula_structural   Li15Fe16(PO4)16
_chemical_formula_sum   'Li135 Fe144 P144 O576'
_cell_volume   1225.02975762
_cell_formula_units_Z   9
loop_
 _symmetry_equiv_pos_site_id
 _symmetry_equiv_pos_as_xyz
  1  'x, y, z'
loop_
 _atom_site_type_symbol
 _atom_site_label
 _atom_site_symmetry_multiplicity
 _atom_site_fract_x
 _atom_site_fract_y
 _atom_site_fract_z
 _atom_site_occupancy
  Li  Li0  1  -0.00147286  0.49943383  0.50140524  1
  Li  Li1  1  0.49713851  0.25410668  0.24066925  1
  Li  Li2  1  0.50289586  0.74585356  0.25939228  1
  Li  Li3  1  0.00061351  0.00096464  0.49915848  1
  Li  Li4  1  -0.00057260  0.49908745  0.00077190  1
  Li  Li5  1  0.00074939  0.00216884  -0.00176479  1
  Li  Li6  1  -0.00070710  0.49788458  0.50169949  1
  Li  Li7  1  0.50001411  0.24997678  0.25002200  1
  Li  Li8  1  0.50000885  0.74998218  0.25002181  1
  Li  Li9  1  0.50002084  0.74997654  0.75003230  1
  Li  Li10  1  0.50286102  0.00410702  0.25932469  1
  Li  Li11  1  0.50540095  0.01684955  0.76032380  1
  Li  Li12  1  0.49710051  0.49585454  0.24060927  1
  Li  Li13  1  0.49458659  0.48312692  0.73964957  1
  Li  Li14  1  0.00149468  0.24941177  -0.00143659  1
  Li  Li15  1  -0.00151338  0.25062970  0.50147764  1
  Li  Li16  1  0.00090279  0.74973119  -0.00040290  1
  Li  Li17  1  -0.00098231  0.75034597  0.50051016  1
  Li  Li18  1  0.00159205  0.00174429  -0.00203525  1
  Li  Li19  1  0.50542412  0.73312107  0.76034636  1
  Li  Li20  1  0.49999168  -0.00001718  0.24997822  1
  Li  Li21  1  0.49998269  -0.00002216  0.74997396  1
  Li  Li22  1  0.49997843  0.49997125  0.24996655  1
  Li  Li23  1  0.49459719  0.26686307  0.73966854  1
  Li  Li24  1  0.00163716  0.00112625  0.49846086  1
  Li  Li25  1  0.00025679  0.49981735  -0.00049975  1
  Li  Li26  1  0.00023601  0.49831161  0.50128555  1
  Li  Li27  1  0.49705633  0.25149741  0.24436154  1
  Li  Li28  1  0.50110539  0.74805593  0.25313271  1
  Li  Li29  1  -0.00060109  0.25095423  0.00081454  1
  Li  Li30  1  -0.00076420  0.25219540  0.50177596  1
  Li  Li31  1  0.00071820  0.74786991  -0.00171592  1
  Li  Li32  1  0.00054767  0.74911889  0.49925313  1
  Li  Li33  1  0.50265725  0.00351088  0.25584348  1
  Li  Li34  1  0.50292790  0.00920069  0.75615349  1
  Li  Li35  1  0.49537808  0.49753403  0.24168728  1
  Li  Li36  1  0.52859301  0.31654771  0.72077144  1
  Li  Li37  1  0.00099382  0.24959953  -0.00179912  1
  Li  Li38  1  0.00199585  0.25121159  0.50119306  1
  Li  Li39  1  0.50293208  0.74213288  0.75564495  1
  Li  Li40  1  0.50466431  0.00538480  0.26100999  1
  Li  Li41  1  0.50548259  0.01590361  0.76031889  1
  Li  Li42  1  0.49488485  0.49555338  0.23936093  1
  Li  Li43  1  0.50958932  0.45935437  0.72975376  1
  Li  Li44  1  0.00068841  0.24878037  -0.00168387  1
  Li  Li45  1  -0.00066804  0.25025891  0.50152245  1
  Li  Li46  1  0.00063512  0.75016767  0.00034574  1
  Li  Li47  1  -0.00057458  0.75047132  0.50087283  1
  Li  Li48  1  0.00305501  0.25056985  0.50078618  1
  Li  Li49  1  0.00136572  0.74898105  -0.00136911  1
  Li  Li50  1  0.00076714  0.74972494  0.49922719  1
  Li  Li51  1  0.00057336  0.00007574  -0.00004681  1
  Li  Li52  1  0.00053030  0.00027739  0.49981504  1
  Li  Li53  1  0.00093319  0.50157563  -0.00223814  1
  Li  Li54  1  0.00072104  0.50035633  0.50108733  1
  Li  Li55  1  0.49416184  0.25404026  0.23851578  1
  Li  Li56  1  0.50483924  0.74436189  0.26111989  1
  Li  Li57  1  0.50525299  0.73486652  0.75956741  1
  Li  Li58  1  0.00151202  0.50062269  -0.00148008  1
  Li  Li59  1  0.00165679  0.50188853  -0.00301277  1
  Li  Li60  1  0.00220551  0.50043747  0.50063859  1
  Li  Li61  1  0.49378756  0.25398082  0.23834314  1
  Li  Li62  1  0.50459251  0.74404473  0.26058076  1
  Li  Li63  1  0.50511211  0.73648562  0.75828704  1
  Li  Li64  1  0.50369377  0.00478304  0.25777285  1
  Li  Li65  1  0.50359892  0.00994799  0.75670442  1
  Li  Li66  1  0.49410049  0.49677662  0.23994255  1
  Li  Li67  1  0.54626058  0.34553319  0.71456599  1
  Li  Li68  1  0.00153794  0.24886590  -0.00285968  1
  Li  Li69  1  0.50469550  0.74455982  0.26108089  1
  Li  Li70  1  0.50544967  0.73404656  0.76031798  1
  Li  Li71  1  0.50375696  0.74513448  0.25788454  1
  Li  Li72  1  0.50360569  0.74003347  0.75673753  1
  Li  Li73  1  0.50455002  0.00588404  0.26047748  1
  Li  Li74  1  0.50511408  0.01350161  0.75825693  1
  Li  Li75  1  0.49376210  0.49593023  0.23825184  1
  Li  Li76  1  0.54626906  0.40446178  0.71456088  1
  Li  Li77  1  0.00159152  0.24819888  -0.00287566  1
  Li  Li78  1  0.00202579  0.24975352  0.50086226  1
  Li  Li79  1  0.00110827  0.74928784  -0.00097663  1
  Li  Li80  1  0.00029398  0.75000683  0.49974546  1
  Li  Li81  1  0.50106531  0.00186615  0.25304746  1
  Li  Li82  1  0.50295199  0.00783677  0.75562485  1
  Li  Li83  1  0.49692405  0.49835707  0.24424974  1
  Li  Li84  1  0.50957878  0.29060651  0.72976849  1
  Li  Li85  1  0.00021832  0.25024433  -0.00041237  1
  Li  Li86  1  0.00004301  0.25195120  0.50158301  1
  Li  Li87  1  0.00153382  0.74831681  -0.00193042  1
  Li  Li88  1  0.00135465  0.74921131  0.49882813  1
  Li  Li89  1  0.00095180  0.00031253  -0.00048302  1
  Li  Li90  1  -0.00079136  -0.00017956  0.50030026  1
  Li  Li91  1  0.55107657  0.37501468  0.71052935  1
  Li  Li92  1  0.00161379  0.24839599  -0.00296142  1
  Li  Li93  1  0.00376700  0.24975963  0.50034852  1
  Li  Li94  1  0.00124063  0.74911209  -0.00134412  1
  Li  Li95  1  0.00064886  0.74994146  0.49945874  1
  Li  Li96  1  0.00117944  0.00080415  -0.00110902  1
  Li  Li97  1  0.00045221  0.00018447  0.49951257  1
  Li  Li98  1  0.00150792  0.74862638  -0.00165598  1
  Li  Li99  1  0.00103906  0.74947690  0.49902425  1
  Li  Li100  1  0.00067334  -0.00011355  0.00018663  1
  Li  Li101  1  0.00013267  0.00018034  0.50010397  1
  Li  Li102  1  0.00075674  0.50130681  -0.00179328  1
  Li  Li103  1  -0.00055315  0.49992251  0.50134117  1
  Li  Li104  1  0.49491179  0.25439426  0.23939779  1
  Li  Li105  1  0.50271212  0.74641783  0.25593731  1
  Li  Li106  1  0.50293232  0.74078392  0.75618095  1
  Li  Li107  1  0.50479550  0.00558408  0.26104584  1
  Li  Li108  1  0.50525076  0.01512328  0.75954833  1
  Li  Li109  1  0.49413595  0.49589625  0.23845696  1
  Li  Li110  1  0.00144181  0.00111695  -0.00151842  1
  Li  Li111  1  0.00111116  0.00061189  0.49891219  1
  Li  Li112  1  0.00159446  0.50121405  -0.00297881  1
  Li  Li113  1  0.00339154  0.49974523  0.50049866  1
  Li  Li114  1  0.49414657  0.25311461  0.24007938  1
  Li  Li115  1  0.00131618  0.00098237  -0.00147826  1
  Li  Li116  1  0.00081642  0.00026624  0.49920832  1
  Li  Li117  1  0.00165505  0.50166323  -0.00305754  1
  Li  Li118  1  0.00409605  0.50055025  0.49991843  1
  Li  Li119  1  0.49369877  0.25370681  0.23858830  1
  Li  Li120  1  0.50411563  0.74422907  0.25951838  1
  Li  Li121  1  0.50485091  0.73849714  0.75756204  1
  Li  Li122  1  0.50405166  0.00566959  0.25939188  1
  Li  Li123  1  0.50483954  0.01147329  0.75753395  1
  Li  Li124  1  0.49365913  0.49619798  0.23844755  1
  Li  Li125  1  0.00156750  0.00144954  -0.00177909  1
  Li  Li126  1  0.52860407  0.43343678  0.72076473  1
  Li  Li127  1  0.00085079  0.24851898  -0.00211144  1
  Li  Li128  1  0.00060907  0.24979619  0.50126107  1
  Li  Li129  1  0.00051243  0.75000260  0.00007376  1
  Li  Li130  1  0.00036605  0.74991141  0.50005789  1
  Li  Li131  1  0.00127105  0.00075450  0.49875031  1
  Li  Li132  1  0.00106015  0.50047242  -0.00189119  1
  Li  Li133  1  0.00212829  0.49894885  0.50100509  1
  Li  Li134  1  0.49544934  0.25236300  0.24180704  1
  Fe  Fe135  1  0.28359451  0.62320690  0.48343972  1
  Fe  Fe136  1  0.28381151  0.62317753  0.98133200  1
  Fe  Fe137  1  0.21793340  0.37515290  0.23303334  1
  Fe  Fe138  1  0.22159299  0.37461781  0.73731349  1
  Fe  Fe139  1  0.21792511  0.87453316  0.23274204  1
  Fe  Fe140  1  0.77840098  0.12538710  0.76269188  1
  Fe  Fe141  1  0.78207523  0.62546658  0.26726014  1
  Fe  Fe142  1  0.78191059  0.62516880  0.76685623  1
  Fe  Fe143  1  0.78206416  0.12485765  0.26696146  1
  Fe  Fe144  1  0.71621758  0.37467310  0.01558300  1
  Fe  Fe145  1  0.28472098  0.62254075  0.98025960  1
  Fe  Fe146  1  0.21686123  0.37465216  0.23143747  1
  Fe  Fe147  1  0.28189804  0.62407010  0.48304369  1
  Fe  Fe148  1  0.28420215  0.62335323  0.98154260  1
  Fe  Fe149  1  0.21696994  0.37466046  0.23147693  1
  Fe  Fe150  1  0.22009946  0.37402598  0.73768976  1
  Fe  Fe151  1  0.21843144  0.87483691  0.23195295  1
  Fe  Fe152  1  0.21875136  0.87449684  0.73326941  1
  Fe  Fe153  1  0.78161855  0.12400910  0.26840159  1
  Fe  Fe154  1  0.77839194  0.12520477  0.76368458  1
  Fe  Fe155  1  0.71547792  0.87474358  0.52087896  1
  Fe  Fe156  1  0.28318263  0.12447351  0.48402437  1
  Fe  Fe157  1  0.28463247  0.12728414  0.98198110  1
  Fe  Fe158  1  0.22032497  0.37400248  0.73672579  1
  Fe  Fe159  1  0.21843907  0.87456778  0.23208580  1
  Fe  Fe160  1  0.21875296  0.87439982  0.73309630  1
  Fe  Fe161  1  0.78182488  0.12409889  0.26833916  1
  Fe  Fe162  1  0.77854589  0.12490938  0.76314441  1
  Fe  Fe163  1  0.78196363  0.62509624  0.26863374  1
  Fe  Fe164  1  0.78041060  0.62450051  0.76662144  1
  Fe  Fe165  1  0.28189589  0.12592209  0.48304133  1
  Fe  Fe166  1  0.28420448  0.12663739  0.98153456  1
  Fe  Fe167  1  0.28319212  0.62551911  0.48402835  1
  Fe  Fe168  1  0.28462720  0.62270847  0.98199250  1
  Fe  Fe169  1  0.21696990  0.37533855  0.23148375  1
  Fe  Fe170  1  0.22009491  0.37597950  0.73769016  1
  Fe  Fe171  1  0.21842732  0.87515909  0.23195446  1
  Fe  Fe172  1  0.21875145  0.87550840  0.73326770  1
  Fe  Fe173  1  0.78229292  0.12500904  0.26817290  1
  Fe  Fe174  1  0.78155206  0.62555790  0.26876116  1
  Fe  Fe175  1  0.77911586  0.62384450  0.76552771  1
  Fe  Fe176  1  0.71782266  0.37432978  0.02092879  1
  Fe  Fe177  1  0.71926170  0.37264549  0.50667199  1
  Fe  Fe178  1  0.71627532  0.87554486  0.01654133  1
  Fe  Fe179  1  0.71504638  0.87475528  0.52142260  1
  Fe  Fe180  1  0.28279689  0.12475857  0.48374819  1
  Fe  Fe181  1  0.28464716  0.12711597  0.98193634  1
  Fe  Fe182  1  0.28126318  0.62562827  0.48263869  1
  Fe  Fe183  1  0.28391785  0.62354169  0.98200054  1
  Fe  Fe184  1  0.21793120  0.37485872  0.23303688  1
  Fe  Fe185  1  0.22159751  0.37539227  0.73731381  1
  Fe  Fe186  1  0.21792542  0.87545708  0.23273705  1
  Fe  Fe187  1  0.21808894  0.87516924  0.73314940  1
  Fe  Fe188  1  0.71771270  0.37380218  0.02010740  1
  Fe  Fe189  1  0.71675923  0.37106294  0.51185900  1
  Fe  Fe190  1  0.71637726  0.87577290  0.01677572  1
  Fe  Fe191  1  0.71597513  0.37263707  0.51821003  1
  Fe  Fe192  1  0.71640154  0.87679397  0.01656401  1
  Fe  Fe193  1  0.71618932  0.87681370  0.51866180  1
  Fe  Fe194  1  0.28379267  0.12532001  0.48441682  1
  Fe  Fe195  1  0.28403601  0.12736128  0.98178005  1
  Fe  Fe196  1  0.21809681  0.87483279  0.73315049  1
  Fe  Fe197  1  0.78202312  0.12432883  0.26819003  1
  Fe  Fe198  1  0.78120601  0.12556323  0.76717917  1
  Fe  Fe199  1  0.78201520  0.62567978  0.26823533  1
  Fe  Fe200  1  0.77888472  0.62500525  0.76309325  1
  Fe  Fe201  1  0.71706899  0.37606673  0.01831966  1
  Fe  Fe202  1  0.71555720  0.37903233  0.51570452  1
  Fe  Fe203  1  0.71668599  0.87366813  0.01690033  1
  Fe  Fe204  1  0.71581439  0.87487188  0.52037727  1
  Fe  Fe205  1  0.28263545  0.12721013  0.48317560  1
  Fe  Fe206  1  0.28473765  0.12744837  0.98024711  1
  Fe  Fe207  1  0.28362048  0.62568589  0.48410976  1
  Fe  Fe208  1  0.21749164  0.37481590  0.23198018  1
  Fe  Fe209  1  0.22103748  0.37450405  0.73820460  1
  Fe  Fe210  1  0.21845434  0.87505276  0.23180374  1
  Fe  Fe211  1  0.21859392  0.87480236  0.73339888  1
  Fe  Fe212  1  0.78140286  0.12410292  0.26873799  1
  Fe  Fe213  1  0.77812129  0.12653661  0.76434099  1
  Fe  Fe214  1  0.78141169  0.62591072  0.26873736  1
  Fe  Fe215  1  0.77814133  0.62346089  0.76436146  1
  Fe  Fe216  1  0.71744955  0.37498902  0.02097108  1
  Fe  Fe217  1  0.72071495  0.37498689  0.50413344  1
  Fe  Fe218  1  0.78207303  0.62515268  0.26696333  1
  Fe  Fe219  1  0.77840613  0.62461356  0.76268946  1
  Fe  Fe220  1  0.71621137  0.37532204  0.01558090  1
  Fe  Fe221  1  0.71598019  0.37735592  0.51821229  1
  Fe  Fe222  1  0.71640823  0.87320112  0.01656148  1
  Fe  Fe223  1  0.71619287  0.87316905  0.51867413  1
  Fe  Fe224  1  0.28360581  0.12679528  0.48343335  1
  Fe  Fe225  1  0.28381932  0.12681351  0.98132477  1
  Fe  Fe226  1  0.28377223  0.62467403  0.48441987  1
  Fe  Fe227  1  0.28403158  0.62263386  0.98178821  1
  Fe  Fe228  1  0.77890618  0.12498709  0.76310168  1
  Fe  Fe229  1  0.78230976  0.62500227  0.26818053  1
  Fe  Fe230  1  0.78118925  0.62442529  0.76721401  1
  Fe  Fe231  1  0.71707950  0.37392125  0.01832968  1
  Fe  Fe232  1  0.71559843  0.37096432  0.51567119  1
  Fe  Fe233  1  0.71666909  0.87631985  0.01690028  1
  Fe  Fe234  1  0.71580865  0.87510388  0.52035738  1
  Fe  Fe235  1  0.28363263  0.12429363  0.48410031  1
  Fe  Fe236  1  0.28436548  0.12698082  0.98188881  1
  Fe  Fe237  1  0.28258414  0.62279461  0.48318085  1
  Fe  Fe238  1  0.28427032  0.62301366  0.98182582  1
  Fe  Fe239  1  0.21683286  0.37535957  0.23144655  1
  Fe  Fe240  1  0.22031014  0.37602423  0.73676479  1
  Fe  Fe241  1  0.21844969  0.87541066  0.23206854  1
  Fe  Fe242  1  0.21872886  0.87560548  0.73309130  1
  Fe  Fe243  1  0.78207191  0.12453664  0.26726407  1
  Fe  Fe244  1  0.78190746  0.12482899  0.76685391  1
  Fe  Fe245  1  0.28281049  0.62522967  0.48374923  1
  Fe  Fe246  1  0.28464546  0.62287963  0.98194641  1
  Fe  Fe247  1  0.21749054  0.37517774  0.23198262  1
  Fe  Fe248  1  0.22101454  0.37550088  0.73823676  1
  Fe  Fe249  1  0.21845330  0.87494955  0.23180642  1
  Fe  Fe250  1  0.21859245  0.87520751  0.73339437  1
  Fe  Fe251  1  0.78196794  0.12491341  0.26861998  1
  Fe  Fe252  1  0.78040845  0.12549996  0.76660578  1
  Fe  Fe253  1  0.78182437  0.62590135  0.26834607  1
  Fe  Fe254  1  0.77854324  0.62508694  0.76315808  1
  Fe  Fe255  1  0.71771637  0.37619009  0.02011024  1
  Fe  Fe256  1  0.71675716  0.37894204  0.51185961  1
  Fe  Fe257  1  0.71637318  0.87421040  0.01676997  1
  Fe  Fe258  1  0.71547542  0.87525900  0.52087721  1
  Fe  Fe259  1  0.71642735  0.87498918  0.01634649  1
  Fe  Fe260  1  0.71474025  0.87499625  0.52162338  1
  Fe  Fe261  1  0.28238931  0.12497808  0.48367011  1
  Fe  Fe262  1  0.28445880  0.12686455  0.98188671  1
  Fe  Fe263  1  0.28244018  0.62501679  0.48368455  1
  Fe  Fe264  1  0.28446457  0.62312487  0.98190253  1
  Fe  Fe265  1  0.21768109  0.37499072  0.23170894  1
  Fe  Fe266  1  0.22118614  0.37500660  0.73819625  1
  Fe  Fe267  1  0.21862010  0.87500586  0.23189774  1
  Fe  Fe268  1  0.21848092  0.87500610  0.73349196  1
  Fe  Fe269  1  0.78154864  0.12445263  0.26874200  1
  Fe  Fe270  1  0.77910663  0.12615282  0.76551089  1
  Fe  Fe271  1  0.78162058  0.62599373  0.26841057  1
  Fe  Fe272  1  0.77839369  0.62479597  0.76370159  1
  Fe  Fe273  1  0.71782420  0.37565520  0.02093060  1
  Fe  Fe274  1  0.71925360  0.37734439  0.50666779  1
  Fe  Fe275  1  0.71627217  0.87443496  0.01654215  1
  Fe  Fe276  1  0.71504198  0.87524484  0.52142173  1
  Fe  Fe277  1  0.28125121  0.12437041  0.48263965  1
  Fe  Fe278  1  0.28391660  0.12645214  0.98199279  1
  P  P279  1  0.09226625  0.12470325  0.20298301  1
  P  P280  1  0.09145757  0.12500087  0.70258221  1
  P  P281  1  0.09207543  0.62487097  0.20186225  1
  P  P282  1  0.09159835  0.62456080  0.70186419  1
  P  P283  1  0.40565763  0.37800052  0.44959410  1
  P  P284  1  0.40696774  0.37569766  0.95637550  1
  P  P285  1  0.40643623  0.87692714  0.45153120  1
  P  P286  1  0.40756903  0.87551115  0.95085590  1
  P  P287  1  0.59399923  0.12291987  0.04934644  1
  P  P288  1  0.59131933  0.12748998  0.54850398  1
  P  P289  1  0.59472116  0.62818332  0.05044393  1
  P  P290  1  0.59257765  0.62600443  0.54494626  1
  P  P291  1  0.90798145  0.37488257  0.29813412  1
  P  P292  1  0.90737286  0.37540632  0.79740541  1
  P  P293  1  0.90788879  0.87542709  0.29914332  1
  P  P294  1  0.90766500  0.87457107  0.29929906  1
  P  P295  1  0.90823697  0.87476010  0.79864386  1
  P  P296  1  0.40698770  0.37561240  0.95661589  1
  P  P297  1  0.40641122  0.87349728  0.45167095  1
  P  P298  1  0.40711214  0.87440605  0.95161024  1
  P  P299  1  0.59434155  0.12199325  0.05040370  1
  P  P300  1  0.59301048  0.12439163  0.54337232  1
  P  P301  1  0.59287970  0.62559283  0.54839724  1
  P  P302  1  0.90773317  0.37529388  0.29701364  1
  P  P303  1  0.90854867  0.37498995  0.79742144  1
  P  P304  1  0.90792446  0.87512468  0.29814059  1
  P  P305  1  0.90840598  0.87543375  0.79814190  1
  P  P306  1  0.40645112  0.87364060  0.45153377  1
  P  P307  1  0.40732487  0.87475608  0.95081585  1
  P  P308  1  0.09082523  0.62447853  0.70248434  1
  P  P309  1  0.40351122  0.37463344  0.44610979  1
  P  P310  1  0.40593177  0.37453385  0.95745304  1
  P  P311  1  0.59266295  0.12394855  0.54487452  1
  P  P312  1  0.59399456  0.62706900  0.04936439  1
  P  P313  1  0.59131712  0.62250741  0.54850844  1
  P  P314  1  0.09171134  0.62552954  0.20270496  1
  P  P315  1  0.09141763  0.62549366  0.70269692  1
  P  P316  1  0.40413257  0.37496782  0.44719070  1
  P  P317  1  0.90889366  0.37502107  0.29804843  1
  P  P318  1  0.90666809  0.37442466  0.79692921  1
  P  P319  1  0.59488127  0.12157710  0.05043079  1
  P  P320  1  0.09151281  0.12480680  0.20256748  1
  P  P321  1  0.59358782  0.12349761  0.04832972  1
  P  P322  1  0.59288920  0.12440479  0.54839341  1
  P  P323  1  0.59434344  0.62800387  0.05041906  1
  P  P324  1  0.59299346  0.62560360  0.54340572  1
  P  P325  1  0.90773198  0.37470523  0.29701627  1
  P  P326  1  0.90854804  0.37499613  0.79742662  1
  P  P327  1  0.90792508  0.87487584  0.29815284  1
  P  P328  1  0.90840409  0.87455739  0.79814014  1
  P  P329  1  0.09114453  0.62550697  0.70276234  1
  P  P330  1  0.40352396  0.37535270  0.44611328  1
  P  P331  1  0.40593474  0.37545951  0.95745117  1
  P  P332  1  0.40645246  0.87635591  0.45153218  1
  P  P333  1  0.40732147  0.87524265  0.95081594  1
  P  P334  1  0.59418176  0.12241762  0.04989218  1
  P  P335  1  0.59026158  0.12879425  0.54858752  1
  P  P336  1  0.59487738  0.62841041  0.05044711  1
  P  P337  1  0.09076409  0.12475321  0.70275848  1
  P  P338  1  0.09105951  0.62498696  0.20207515  1
  P  P339  1  0.09042990  0.62481485  0.70259109  1
  P  P340  1  0.40393431  0.37489653  0.44624835  1
  P  P341  1  0.40461005  0.37493427  0.95866725  1
  P  P342  1  0.40659566  0.87453665  0.45149873  1
  P  P343  1  0.40707223  0.87496055  0.95094266  1
  P  P344  1  0.59462982  0.12172513  0.05013153  1
  P  P345  1  0.59122154  0.12856904  0.54761281  1
  P  P346  1  0.59425600  0.62763827  0.04976589  1
  P  P347  1  0.90750153  0.87498903  0.79840660  1
  P  P348  1  0.09106626  0.12499578  0.20206988  1
  P  P349  1  0.09042639  0.12518718  0.70257572  1
  P  P350  1  0.09150994  0.62517698  0.20258336  1
  P  P351  1  0.09076585  0.62524644  0.70276469  1
  P  P352  1  0.40397022  0.37505430  0.44626922  1
  P  P353  1  0.40461115  0.37505424  0.95866732  1
  P  P354  1  0.40659658  0.87546403  0.45150003  1
  P  P355  1  0.40707038  0.87504336  0.95094340  1
  P  P356  1  0.59425815  0.12234215  0.04975049  1
  P  P357  1  0.90666881  0.37556174  0.79693011  1
  P  P358  1  0.90766404  0.87542869  0.29929342  1
  P  P359  1  0.90823715  0.87521634  0.79864286  1
  P  P360  1  0.09218731  0.12520045  0.20113124  1
  P  P361  1  0.09114854  0.12582706  0.70199991  1
  P  P362  1  0.09217040  0.62478105  0.20115622  1
  P  P363  1  0.09113433  0.62418878  0.70198275  1
  P  P364  1  0.40411019  0.37500609  0.44718811  1
  P  P365  1  0.40697197  0.37429489  0.95639038  1
  P  P366  1  0.40643439  0.87306841  0.45152596  1
  P  P367  1  0.40756323  0.87448829  0.95086055  1
  P  P368  1  0.59471177  0.12180579  0.05041672  1
  P  P369  1  0.59196957  0.12574963  0.54577735  1
  P  P370  1  0.59417902  0.62757158  0.04990473  1
  P  P371  1  0.59026409  0.62121408  0.54859947  1
  P  P372  1  0.59197970  0.62425467  0.54579511  1
  P  P373  1  0.90889412  0.37497098  0.29804937  1
  P  P374  1  0.58959129  0.13039905  0.54944323  1
  P  P375  1  0.59462563  0.62825619  0.05014753  1
  P  P376  1  0.59126793  0.62139882  0.54764222  1
  P  P377  1  0.90993268  0.37498784  0.29738140  1
  P  P378  1  0.90621383  0.37546843  0.79604433  1
  P  P379  1  0.90742245  0.87520738  0.29938698  1
  P  P380  1  0.90786567  0.87520737  0.79856098  1
  P  P381  1  0.09154675  0.12519195  0.20156653  1
  P  P382  1  0.09082456  0.12551995  0.70248253  1
  P  P383  1  0.09157112  0.62535885  0.20259009  1
  P  P384  1  0.40455173  0.37499170  0.95826265  1
  P  P385  1  0.40669627  0.87499936  0.45166466  1
  P  P386  1  0.40706386  0.87499915  0.95102310  1
  P  P387  1  0.59440580  0.12198378  0.04987074  1
  P  P388  1  0.59003469  0.13116488  0.54956195  1
  P  P389  1  0.59440461  0.62799469  0.04988524  1
  P  P390  1  0.59006823  0.61883448  0.54957833  1
  P  P391  1  0.91019222  0.37500713  0.29734910  1
  P  P392  1  0.90614883  0.37498460  0.79579724  1
  P  P393  1  0.90733589  0.87499785  0.29943653  1
  P  P394  1  0.58960377  0.61960572  0.54945613  1
  P  P395  1  0.90992865  0.37500826  0.29740289  1
  P  P396  1  0.90621819  0.37451945  0.79604198  1
  P  P397  1  0.90742536  0.87479517  0.29939476  1
  P  P398  1  0.90786619  0.87476976  0.79855805  1
  P  P399  1  0.09134598  0.12486596  0.20254408  1
  P  P400  1  0.09031547  0.12493993  0.70278383  1
  P  P401  1  0.09134679  0.62511369  0.20254930  1
  P  P402  1  0.09033566  0.62507086  0.70280684  1
  P  P403  1  0.40407112  0.37499899  0.44586844  1
  P  P404  1  0.90845463  0.87518987  0.79868033  1
  P  P405  1  0.09207435  0.12512246  0.20185206  1
  P  P406  1  0.09160054  0.12543988  0.70186721  1
  P  P407  1  0.09226203  0.62529166  0.20299429  1
  P  P408  1  0.09144990  0.62499319  0.70258742  1
  P  P409  1  0.40565635  0.37198762  0.44960024  1
  P  P410  1  0.40698695  0.37439532  0.95662787  1
  P  P411  1  0.40641322  0.87651006  0.45166629  1
  P  P412  1  0.40711405  0.87559279  0.95160797  1
  P  P413  1  0.90799462  0.37511154  0.29810916  1
  P  P414  1  0.90738167  0.37457728  0.79741365  1
  P  P415  1  0.90788768  0.87458340  0.29911045  1
  P  P416  1  0.90846624  0.87475555  0.79870168  1
  P  P417  1  0.09157775  0.12462425  0.20257199  1
  P  P418  1  0.09114388  0.12449246  0.70276289  1
  P  P419  1  0.09153795  0.62478888  0.20157211  1
  P  P420  1  0.59358451  0.62650837  0.04834194  1
  P  P421  1  0.09173355  0.12444843  0.20268800  1
  P  P422  1  0.09141999  0.12450963  0.70268240  1
  O  O423  1  0.09816753  0.12391994  0.36510277  1
  O  O424  1  0.09711863  0.12436816  0.86486580  1
  O  O425  1  0.39783731  0.87063403  0.61307073  1
  O  O426  1  0.16093709  0.02553039  0.13567634  1
  O  O427  1  0.15957101  0.02485718  0.63681752  1
  O  O428  1  0.15957145  0.52474080  0.13527945  1
  O  O429  1  0.15910278  0.52457824  0.63546247  1
  O  O430  1  0.90138821  0.87489098  0.13613360  1
  O  O431  1  0.90222134  0.87498570  0.63596545  1
  O  O432  1  0.04782816  0.37504497  0.35849629  1
  O  O433  1  0.04854543  0.37516389  0.85864781  1
  O  O434  1  0.04834002  0.87457984  0.35871137  1
  O  O435  1  0.83930512  0.77561438  0.36635430  1
  O  O436  1  0.84038544  0.77518162  0.86494426  1
  O  O437  1  0.84136762  0.47536593  0.36194088  1
  O  O438  1  0.83842137  0.47527030  0.86290160  1
  O  O439  1  0.83921648  0.97478185  0.36636951  1
  O  O440  1  0.84004642  0.97502608  0.86512368  1
  O  O441  1  0.90292996  0.37460261  0.13555813  1
  O  O442  1  0.90203393  0.37535790  0.63369973  1
  O  O443  1  0.90087116  0.87522097  0.13736359  1
  O  O444  1  0.90018717  0.87533163  0.63647335  1
  O  O445  1  0.33099085  0.27719106  0.89647774  1
  O  O446  1  0.90240066  0.37559549  0.13604232  1
  O  O447  1  0.90192186  0.37467680  0.63518432  1
  O  O448  1  0.90133795  0.87431745  0.13707968  1
  O  O449  1  0.09861811  0.62507934  0.36386808  1
  O  O450  1  0.09777557  0.62498961  0.86404100  1
  O  O451  1  0.83922442  0.27507015  0.36184853  1
  O  O452  1  0.83946116  0.27543315  0.86272195  1
  O  O453  1  0.83936679  0.77561503  0.36477504  1
  O  O454  1  0.65746225  0.52140411  0.61530811  1
  O  O455  1  0.15952175  0.22483298  0.13737954  1
  O  O456  1  0.16001078  0.22422703  0.63715984  1
  O  O457  1  0.16087554  0.72410116  0.13440132  1
  O  O458  1  0.15911503  0.72399364  0.63544407  1
  O  O459  1  0.95115850  0.12461775  0.64130751  1
  O  O460  1  0.95217063  0.62504841  0.14149914  1
  O  O461  1  0.95145706  0.62516289  0.64135118  1
  O  O462  1  0.45269953  0.12469598  0.10781714  1
  O  O463  1  0.45252910  0.12433732  0.60874816  1
  O  O464  1  0.45309238  0.62503921  0.10861747  1
  O  O465  1  0.45312564  0.63095862  0.59995755  1
  O  O466  1  0.54689785  0.37495908  0.39137772  1
  O  O467  1  0.54683568  0.36899783  0.90003666  1
  O  O468  1  0.54730165  0.87529489  0.39218282  1
  O  O469  1  0.33921346  0.77626707  0.38412040  1
  O  O470  1  0.33866131  0.77501149  0.88581639  1
  O  O471  1  0.33616622  0.47589730  0.38049317  1
  O  O472  1  0.32962545  0.47244184  0.89719338  1
  O  O473  1  0.33896844  0.97606904  0.38328611  1
  O  O474  1  0.33887654  0.97560921  0.88544179  1
  O  O475  1  0.90202696  0.37457640  0.63370148  1
  O  O476  1  0.90087107  0.87473562  0.13736933  1
  O  O477  1  0.90018290  0.87456874  0.63647734  1
  O  O478  1  0.04968362  0.37488627  0.35891433  1
  O  O479  1  0.04613924  0.37497273  0.85774638  1
  O  O480  1  0.04839230  0.87484329  0.35858204  1
  O  O481  1  0.04871482  0.87473152  0.85809415  1
  O  O482  1  0.40004457  0.37456509  0.12247890  1
  O  O483  1  0.39305221  0.37598526  0.60723046  1
  O  O484  1  0.40021896  0.87463053  0.11271595  1
  O  O485  1  0.83950676  0.97503643  0.36623363  1
  O  O486  1  0.84025940  0.97498400  0.86535419  1
  O  O487  1  0.90239819  0.37436165  0.13604515  1
  O  O488  1  0.90180140  0.37562136  0.63467828  1
  O  O489  1  0.90112199  0.87559631  0.13725473  1
  O  O490  1  0.33875992  0.97317258  0.38460059  1
  O  O491  1  0.33920063  0.97372623  0.38412284  1
  O  O492  1  0.33868092  0.97498816  0.88579474  1
  O  O493  1  0.95129344  0.12435603  0.14190120  1
  O  O494  1  0.95096297  0.12465650  0.64193893  1
  O  O495  1  0.95108219  0.62512074  0.14139269  1
  O  O496  1  0.95020366  0.62415242  0.64242622  1
  O  O497  1  0.45332997  0.12509582  0.10809647  1
  O  O498  1  0.45152207  0.11843270  0.60069504  1
  O  O499  1  0.45281036  0.62478293  0.10838031  1
  O  O500  1  0.16054783  0.02604196  0.13517521  1
  O  O501  1  0.15738328  0.02485778  0.63585814  1
  O  O502  1  0.15945952  0.52483388  0.13724619  1
  O  O503  1  0.15936400  0.52564433  0.63692863  1
  O  O504  1  0.66292426  0.22285804  0.11405930  1
  O  O505  1  0.65391651  0.23310383  0.61536841  1
  O  O506  1  0.65999072  0.72756729  0.12248502  1
  O  O507  1  0.66332166  0.72118973  0.61247335  1
  O  O508  1  0.33658442  0.27453262  0.37988643  1
  O  O509  1  0.33213839  0.27656525  0.89616514  1
  O  O510  1  0.90069899  0.87425686  0.63659406  1
  O  O511  1  0.04889510  0.37492930  0.35922837  1
  O  O512  1  0.04683287  0.37496078  0.85815904  1
  O  O513  1  0.04856003  0.87462846  0.35863563  1
  O  O514  1  0.04903647  0.87453175  0.85822902  1
  O  O515  1  0.40016879  0.37537099  0.12107059  1
  O  O516  1  0.39155465  0.37687993  0.60690207  1
  O  O517  1  0.40025132  0.87403619  0.11265035  1
  O  O518  1  0.33807712  0.47647495  0.89032861  1
  O  O519  1  0.33762315  0.97336958  0.38593734  1
  O  O520  1  0.83900759  0.47542105  0.86353353  1
  O  O521  1  0.33900260  0.97480459  0.88597000  1
  O  O522  1  0.95141685  0.12429872  0.14199555  1
  O  O523  1  0.95140687  0.12454712  0.64151980  1
  O  O524  1  0.95149324  0.62513161  0.14132383  1
  O  O525  1  0.95046499  0.62444730  0.64203323  1
  O  O526  1  0.45319596  0.12488802  0.10812424  1
  O  O527  1  0.45247810  0.11826664  0.60053936  1
  O  O528  1  0.45277216  0.62467767  0.10808324  1
  O  O529  1  0.45072260  0.62521300  0.60643480  1
  O  O530  1  0.54566691  0.37374990  0.39003601  1
  O  O531  1  0.04967991  0.37511130  0.35891211  1
  O  O532  1  0.04613680  0.37502839  0.85774630  1
  O  O533  1  0.04838576  0.87516112  0.35858218  1
  O  O534  1  0.04871263  0.87527158  0.85809470  1
  O  O535  1  0.40004226  0.37541189  0.12247695  1
  O  O536  1  0.39305069  0.37401476  0.60724896  1
  O  O537  1  0.40022347  0.87541003  0.11271490  1
  O  O538  1  0.39654529  0.87632104  0.61249598  1
  O  O539  1  0.15925605  0.02437337  0.63654474  1
  O  O540  1  0.15992892  0.52463606  0.13474139  1
  O  O541  1  0.15875108  0.52427879  0.63556866  1
  O  O542  1  0.66255464  0.22286629  0.11426830  1
  O  O543  1  0.66906617  0.22105568  0.60440836  1
  O  O544  1  0.66028338  0.72656105  0.11963671  1
  O  O545  1  0.66196147  0.72179211  0.61376596  1
  O  O546  1  0.33656093  0.27431946  0.38228219  1
  O  O547  1  0.32872888  0.27805538  0.89754159  1
  O  O548  1  0.33923484  0.77326935  0.38323452  1
  O  O549  1  0.60578266  0.11391570  0.88979820  1
  O  O550  1  0.60094912  0.62012706  0.38699882  1
  O  O551  1  0.60447960  0.63347481  0.88905681  1
  O  O552  1  0.65999135  0.02241577  0.12247739  1
  O  O553  1  0.66332773  0.02879594  0.61241592  1
  O  O554  1  0.66291799  0.52712352  0.11408217  1
  O  O555  1  0.65393305  0.51689743  0.61535324  1
  O  O556  1  0.15945526  0.22516338  0.13725879  1
  O  O557  1  0.15935007  0.22436020  0.63693112  1
  O  O558  1  0.16054103  0.72394457  0.13520637  1
  O  O559  1  0.33904186  0.77489223  0.38317503  1
  O  O560  1  0.33820996  0.77469837  0.88590267  1
  O  O561  1  0.33658027  0.47543843  0.37988176  1
  O  O562  1  0.33214167  0.47342747  0.89616812  1
  O  O563  1  0.33943273  0.97447184  0.38371129  1
  O  O564  1  0.15737656  0.72514356  0.63586637  1
  O  O565  1  0.09697927  0.12419155  0.36483471  1
  O  O566  1  0.09652902  0.12438624  0.86502332  1
  O  O567  1  0.09697691  0.62571571  0.36484535  1
  O  O568  1  0.09653955  0.62560077  0.86504616  1
  O  O569  1  0.84159160  0.27487255  0.36248757  1
  O  O570  1  0.83803138  0.27507412  0.86247478  1
  O  O571  1  0.83913171  0.77545294  0.36646236  1
  O  O572  1  0.83995375  0.77499934  0.86479756  1
  O  O573  1  0.84160831  0.47514694  0.36249050  1
  O  O574  1  0.16077485  0.52506951  0.13816060  1
  O  O575  1  0.16054297  0.52544069  0.63728298  1
  O  O576  1  0.66237630  0.22337230  0.11405806  1
  O  O577  1  0.66134305  0.22470121  0.61309884  1
  O  O578  1  0.66070056  0.72726064  0.12206594  1
  O  O579  1  0.66188999  0.72647890  0.60969484  1
  O  O580  1  0.33930367  0.27273940  0.37792188  1
  O  O581  1  0.33808568  0.27352659  0.89034305  1
  O  O582  1  0.33762830  0.77663321  0.38594356  1
  O  O583  1  0.84089576  0.77457596  0.86454302  1
  O  O584  1  0.83922251  0.47493128  0.36184434  1
  O  O585  1  0.83946399  0.47455875  0.86271067  1
  O  O586  1  0.83937874  0.97439424  0.36476801  1
  O  O587  1  0.83984310  0.97423322  0.86432255  1
  O  O588  1  0.90183858  0.37392294  0.13489667  1
  O  O589  1  0.90288032  0.37436466  0.63514563  1
  O  O590  1  0.90138424  0.87509144  0.13614612  1
  O  O591  1  0.90220624  0.87496775  0.63596839  1
  O  O592  1  0.04783104  0.37495517  0.35849293  1
  O  O593  1  0.54804902  0.87567255  0.89078446  1
  O  O594  1  0.59980921  0.12724475  0.38645789  1
  O  O595  1  0.90127818  0.87404008  0.63663332  1
  O  O596  1  0.04817492  0.37497712  0.35900089  1
  O  O597  1  0.04745864  0.37501596  0.85856492  1
  O  O598  1  0.04869387  0.87453256  0.35863850  1
  O  O599  1  0.04920744  0.87433168  0.85841500  1
  O  O600  1  0.40050045  0.37648620  0.11974156  1
  O  O601  1  0.39195776  0.37934008  0.60772919  1
  O  O602  1  0.40063167  0.87357901  0.11280214  1
  O  O603  1  0.54795032  0.37606774  0.90197674  1
  O  O604  1  0.54774073  0.87351143  0.39297207  1
  O  O605  1  0.15927873  0.22529073  0.13696423  1
  O  O606  1  0.15904055  0.22457503  0.63633083  1
  O  O607  1  0.16084717  0.72408308  0.13546989  1
  O  O608  1  0.33831919  0.97516315  0.88591647  1
  O  O609  1  0.95132004  0.12450163  0.14173828  1
  O  O610  1  0.95045218  0.12502485  0.64214526  1
  O  O611  1  0.95088513  0.62531266  0.14128709  1
  O  O612  1  0.94989509  0.62425202  0.64241795  1
  O  O613  1  0.45316711  0.12511072  0.10829168  1
  O  O614  1  0.45042773  0.11861235  0.60108834  1
  O  O615  1  0.45280351  0.62469279  0.10812339  1
  O  O616  1  0.44872083  0.62920298  0.60260714  1
  O  O617  1  0.54540603  0.37422727  0.38835676  1
  O  O618  1  0.45280569  0.12529245  0.10810609  1
  O  O619  1  0.44871135  0.12078501  0.60260042  1
  O  O620  1  0.45316469  0.62487542  0.10831180  1
  O  O621  1  0.45046982  0.63136307  0.60110068  1
  O  O622  1  0.54543959  0.37575533  0.38836015  1
  O  O623  1  0.54718252  0.37447439  0.90844706  1
  O  O624  1  0.33876902  0.77682275  0.38460257  1
  O  O625  1  0.33899781  0.77519215  0.88598580  1
  O  O626  1  0.33658279  0.47564017  0.38222951  1
  O  O627  1  0.83804313  0.47490913  0.86244141  1
  O  O628  1  0.83914443  0.97455476  0.36644024  1
  O  O629  1  0.83994719  0.97498805  0.86475486  1
  O  O630  1  0.90262015  0.37498032  0.13561149  1
  O  O631  1  0.90208360  0.37492778  0.63344946  1
  O  O632  1  0.90084229  0.87497190  0.13740125  1
  O  O633  1  0.89984364  0.87495022  0.63628067  1
  O  O634  1  0.04991412  0.37500970  0.35878832  1
  O  O635  1  0.04590927  0.37499965  0.85789021  1
  O  O636  1  0.04833603  0.87499725  0.35855209  1
  O  O637  1  0.33865599  0.77530026  0.88689949  1
  O  O638  1  0.33727897  0.47324191  0.38725966  1
  O  O639  1  0.32964582  0.47091647  0.89733378  1
  O  O640  1  0.33924106  0.97637466  0.38370371  1
  O  O641  1  0.33818387  0.97548138  0.88602926  1
  O  O642  1  0.95165771  0.12457632  0.14128387  1
  O  O643  1  0.09661903  0.62541585  0.86483921  1
  O  O644  1  0.84135128  0.27463069  0.36196408  1
  O  O645  1  0.83841030  0.27472563  0.86291457  1
  O  O646  1  0.83920125  0.77522969  0.36638666  1
  O  O647  1  0.84005321  0.77496022  0.86516656  1
  O  O648  1  0.84093929  0.47454336  0.36342033  1
  O  O649  1  0.83745473  0.47443596  0.86206896  1
  O  O650  1  0.83931893  0.97439712  0.36634031  1
  O  O651  1  0.84038216  0.97480551  0.86490873  1
  O  O652  1  0.90290218  0.37534868  0.13556099  1
  O  O653  1  0.15909554  0.22542399  0.63545958  1
  O  O654  1  0.16093058  0.72446210  0.13568544  1
  O  O655  1  0.15956196  0.72513728  0.63682565  1
  O  O656  1  0.16090246  0.02590488  0.13433001  1
  O  O657  1  0.15916934  0.02603699  0.63545931  1
  O  O658  1  0.15950604  0.52515443  0.13736214  1
  O  O659  1  0.16000545  0.52578129  0.63715789  1
  O  O660  1  0.66260953  0.22334049  0.11381551  1
  O  O661  1  0.65748273  0.22858626  0.61531897  1
  O  O662  1  0.66068182  0.72740239  0.12240261  1
  O  O663  1  0.66177313  0.72663002  0.61154296  1
  O  O664  1  0.33753361  0.27482375  0.37858343  1
  O  O665  1  0.34017559  0.27507984  0.88868032  1
  O  O666  1  0.09750165  0.12389309  0.36473276  1
  O  O667  1  0.09717601  0.12397723  0.86499360  1
  O  O668  1  0.09737636  0.62513449  0.36377930  1
  O  O669  1  0.09737870  0.62495515  0.86465271  1
  O  O670  1  0.84058007  0.27440257  0.36216621  1
  O  O671  1  0.66192101  0.02352769  0.60965643  1
  O  O672  1  0.66237030  0.52662818  0.11405279  1
  O  O673  1  0.66133465  0.52529608  0.61309624  1
  O  O674  1  0.16078255  0.22493055  0.13816671  1
  O  O675  1  0.16053666  0.22455979  0.63727960  1
  O  O676  1  0.16062633  0.72438811  0.13524418  1
  O  O677  1  0.16015997  0.72423104  0.63566718  1
  O  O678  1  0.09773339  0.12367462  0.36481060  1
  O  O679  1  0.09715322  0.12393785  0.86494127  1
  O  O680  1  0.09825960  0.62478263  0.36325730  1
  O  O681  1  0.09817350  0.62438100  0.86408298  1
  O  O682  1  0.83971513  0.27452726  0.36225676  1
  O  O683  1  0.83936983  0.27476035  0.86351999  1
  O  O684  1  0.83955799  0.77502507  0.36599134  1
  O  O685  1  0.84016916  0.77512413  0.86541683  1
  O  O686  1  0.04854878  0.37484269  0.85864139  1
  O  O687  1  0.04834732  0.87543182  0.35871125  1
  O  O688  1  0.04885219  0.87539280  0.85869108  1
  O  O689  1  0.40093089  0.37263506  0.11990931  1
  O  O690  1  0.54747021  0.87565616  0.89124547  1
  O  O691  1  0.59909935  0.12335973  0.38632150  1
  O  O692  1  0.83873297  0.27601539  0.36542756  1
  O  O693  1  0.83905538  0.27529182  0.86323645  1
  O  O694  1  0.83999244  0.77562158  0.36589866  1
  O  O695  1  0.84119338  0.77506195  0.86497231  1
  O  O696  1  0.83972074  0.47546603  0.36228912  1
  O  O697  1  0.83940161  0.47523792  0.86351689  1
  O  O698  1  0.83959970  0.97500244  0.36601198  1
  O  O699  1  0.84017218  0.97484894  0.86534060  1
  O  O700  1  0.90192070  0.37403746  0.13609227  1
  O  O701  1  0.90194876  0.37525744  0.63516952  1
  O  O702  1  0.65973260  0.72736393  0.12201272  1
  O  O703  1  0.66363015  0.71799483  0.61323976  1
  O  O704  1  0.33636713  0.27442932  0.37989692  1
  O  O705  1  0.33143661  0.27678588  0.89627048  1
  O  O706  1  0.33943974  0.77517401  0.38366833  1
  O  O707  1  0.33824947  0.77477863  0.88600464  1
  O  O708  1  0.33635065  0.47555951  0.37989157  1
  O  O709  1  0.33143822  0.47320289  0.89627781  1
  O  O710  1  0.33942339  0.97481501  0.38366072  1
  O  O711  1  0.33825170  0.97521669  0.88598708  1
  O  O712  1  0.33887012  0.77439063  0.88545325  1
  O  O713  1  0.33693100  0.47526464  0.37904510  1
  O  O714  1  0.33763246  0.47422461  0.89151500  1
  O  O715  1  0.39661982  0.87219329  0.61258015  1
  O  O716  1  0.16092943  0.02574983  0.13542803  1
  O  O717  1  0.15873772  0.02436007  0.63636658  1
  O  O718  1  0.15970933  0.52467068  0.13572296  1
  O  O719  1  0.15916501  0.52491330  0.63618567  1
  O  O720  1  0.66292668  0.22254134  0.11431930  1
  O  O721  1  0.66529630  0.22432114  0.60661287  1
  O  O722  1  0.83875092  0.47398798  0.36538724  1
  O  O723  1  0.83902018  0.47468522  0.86320741  1
  O  O724  1  0.84000254  0.97439096  0.36586747  1
  O  O725  1  0.84119777  0.97490609  0.86489747  1
  O  O726  1  0.90191785  0.37592647  0.13606186  1
  O  O727  1  0.66272242  0.22325250  0.11272832  1
  O  O728  1  0.90184028  0.37606384  0.13489402  1
  O  O729  1  0.90288289  0.37562559  0.63514065  1
  O  O730  1  0.66075709  0.72637942  0.11628546  1
  O  O731  1  0.66182113  0.72547741  0.61396956  1
  O  O732  1  0.95109140  0.12488792  0.14137876  1
  O  O733  1  0.95020488  0.12584605  0.64241784  1
  O  O734  1  0.95128763  0.62564348  0.14191260  1
  O  O735  1  0.95095980  0.62534365  0.64194860  1
  O  O736  1  0.45281264  0.12520642  0.10836816  1
  O  O737  1  0.44955163  0.12323093  0.60412165  1
  O  O738  1  0.45332499  0.62489183  0.10810827  1
  O  O739  1  0.45152694  0.63156410  0.60069915  1
  O  O740  1  0.54531635  0.37620157  0.38947479  1
  O  O741  1  0.54788587  0.37523058  0.90513437  1
  O  O742  1  0.60270986  0.11822516  0.88808528  1
  O  O743  1  0.59981044  0.62784207  0.38179424  1
  O  O744  1  0.39654372  0.87368601  0.61249481  1
  O  O745  1  0.16085111  0.02590711  0.13542785  1
  O  O746  1  0.15813703  0.02458689  0.63618776  1
  O  O747  1  0.15926808  0.52469840  0.13695099  1
  O  O748  1  0.15905850  0.52543307  0.63633535  1
  O  O749  1  0.66302544  0.22251779  0.11394538  1
  O  O750  1  0.65975246  0.22906152  0.61052853  1
  O  O751  1  0.65972551  0.72711680  0.12141960  1
  O  O752  1  0.66337082  0.71828417  0.61350895  1
  O  O753  1  0.33606541  0.27433557  0.38075455  1
  O  O754  1  0.54804139  0.87431330  0.89077904  1
  O  O755  1  0.59974997  0.12218136  0.38172386  1
  O  O756  1  0.60658525  0.11385698  0.89025457  1
  O  O757  1  0.59982303  0.62276913  0.38646445  1
  O  O758  1  0.60270104  0.63177411  0.88810194  1
  O  O759  1  0.66068287  0.02260211  0.12238047  1
  O  O760  1  0.66191725  0.02331787  0.61142790  1
  O  O761  1  0.66260790  0.52664864  0.11382793  1
  O  O762  1  0.90180210  0.37432147  0.63467795  1
  O  O763  1  0.90111900  0.87437076  0.13725981  1
  O  O764  1  0.15812652  0.72541642  0.63620112  1
  O  O765  1  0.09738288  0.12478667  0.36377867  1
  O  O766  1  0.09737528  0.12502238  0.86465205  1
  O  O767  1  0.09750023  0.62603748  0.36474615  1
  O  O768  1  0.09717438  0.62599818  0.86499601  1
  O  O769  1  0.83957927  0.27592412  0.36476763  1
  O  O770  1  0.83817306  0.27549158  0.86287404  1
  O  O771  1  0.83962395  0.77573982  0.36611155  1
  O  O772  1  0.84080648  0.77518738  0.86497889  1
  O  O773  1  0.84059218  0.47559705  0.36216030  1
  O  O774  1  0.39399371  0.36381115  0.60980586  1
  O  O775  1  0.40089581  0.87665851  0.11367837  1
  O  O776  1  0.39783526  0.87939044  0.61306637  1
  O  O777  1  0.16063302  0.02560918  0.13523388  1
  O  O778  1  0.16017621  0.02577547  0.63566576  1
  O  O779  1  0.16094507  0.72446821  0.13551950  1
  O  O780  1  0.15922980  0.72563049  0.63654710  1
  O  O781  1  0.09861835  0.12487531  0.36386258  1
  O  O782  1  0.09777436  0.12499676  0.86404452  1
  O  O783  1  0.09816095  0.62605102  0.36511433  1
  O  O784  1  0.09711371  0.62562675  0.86487027  1
  O  O785  1  0.83906341  0.27553484  0.36433368  1
  O  O786  1  0.84043242  0.27485049  0.86318137  1
  O  O787  1  0.84042278  0.77474607  0.36472961  1
  O  O788  1  0.60216524  0.12062677  0.88693087  1
  O  O789  1  0.59907389  0.62736539  0.38012851  1
  O  O790  1  0.60600926  0.63617013  0.89021427  1
  O  O791  1  0.66075218  0.02362345  0.11627419  1
  O  O792  1  0.66181778  0.02451315  0.61395871  1
  O  O793  1  0.66271717  0.52674377  0.11274611  1
  O  O794  1  0.67033159  0.52906232  0.60264191  1
  O  O795  1  0.15957233  0.22525858  0.13529628  1
  O  O796  1  0.90133269  0.87565162  0.13710814  1
  O  O797  1  0.90124688  0.87575031  0.63662703  1
  O  O798  1  0.04818787  0.37500018  0.35895914  1
  O  O799  1  0.04744581  0.37498171  0.85856925  1
  O  O800  1  0.04871533  0.87549104  0.35862730  1
  O  O801  1  0.04919925  0.87565702  0.85840557  1
  O  O802  1  0.40048861  0.37349411  0.11972348  1
  O  O803  1  0.39197981  0.37064134  0.60773380  1
  O  O804  1  0.40063695  0.87644275  0.11279973  1
  O  O805  1  0.39687336  0.87887760  0.61263468  1
  O  O806  1  0.66309736  0.22260094  0.11380552  1
  O  O807  1  0.65420150  0.23365693  0.61485360  1
  O  O808  1  0.84044235  0.47513986  0.86317257  1
  O  O809  1  0.84043320  0.97525812  0.36471541  1
  O  O810  1  0.84090669  0.97542418  0.86452379  1
  O  O811  1  0.67035365  0.22091401  0.60266249  1
  O  O812  1  0.04885271  0.87461039  0.85869169  1
  O  O813  1  0.40092437  0.37736778  0.11989631  1
  O  O814  1  0.39399065  0.38617623  0.60979918  1
  O  O815  1  0.40089778  0.87336171  0.11368129  1
  O  O816  1  0.32962178  0.27755486  0.89718966  1
  O  O817  1  0.33897658  0.77392460  0.38328561  1
  O  O818  1  0.95117898  0.12461856  0.14169729  1
  O  O819  1  0.94995080  0.12549723  0.64224853  1
  O  O820  1  0.95117705  0.62538343  0.14170850  1
  O  O821  1  0.94997530  0.62451260  0.64226576  1
  O  O822  1  0.45297043  0.12521761  0.10827351  1
  O  O823  1  0.44916187  0.12043336  0.60226233  1
  O  O824  1  0.45296936  0.62477430  0.10829234  1
  O  O825  1  0.44918110  0.62951976  0.60227664  1
  O  O826  1  0.54549307  0.37500167  0.38771165  1
  O  O827  1  0.54728194  0.37499448  0.90860772  1
  O  O828  1  0.32873004  0.47194893  0.89754555  1
  O  O829  1  0.33921979  0.97671995  0.38323416  1
  O  O830  1  0.33906158  0.97568801  0.88531286  1
  O  O831  1  0.54842521  0.87499184  0.39416695  1
  O  O832  1  0.54744360  0.87499077  0.89044917  1
  O  O833  1  0.60114123  0.12969167  0.38688066  1
  O  O834  1  0.60489137  0.11482288  0.88938406  1
  O  O835  1  0.60115978  0.62036161  0.38689010  1
  O  O836  1  0.60488596  0.63514068  0.88939852  1
  O  O837  1  0.65973214  0.02261900  0.12201206  1
  O  O838  1  0.66362551  0.03202679  0.61320217  1
  O  O839  1  0.66309425  0.52737700  0.11382176  1
  O  O840  1  0.65425758  0.51634081  0.61486797  1
  O  O841  1  0.90070616  0.87564161  0.63658998  1
  O  O842  1  0.04889443  0.37506194  0.35923174  1
  O  O843  1  0.04683489  0.37503972  0.85815810  1
  O  O844  1  0.04855671  0.87537600  0.35863621  1
  O  O845  1  0.04903490  0.87547142  0.85822960  1
  O  O846  1  0.40017320  0.37461931  0.12107104  1
  O  O847  1  0.39155889  0.37312512  0.60690811  1
  O  O848  1  0.40025607  0.87599761  0.11265119  1
  O  O849  1  0.39661963  0.87780973  0.61257863  1
  O  O850  1  0.44955095  0.62677256  0.60412001  1
  O  O851  1  0.54529771  0.37378585  0.38946764  1
  O  O852  1  0.54788236  0.37476296  0.90513387  1
  O  O853  1  0.54795027  0.87351689  0.39351967  1
  O  O854  1  0.54775240  0.87445892  0.89056177  1
  O  O855  1  0.59978301  0.12377564  0.38261627  1
  O  O856  1  0.60653686  0.11352655  0.89024498  1
  O  O857  1  0.60026786  0.62147547  0.38636458  1
  O  O858  1  0.60389167  0.63372180  0.88902715  1
  O  O859  1  0.66037041  0.02230159  0.12269237  1
  O  O860  1  0.95150851  0.12487232  0.14131782  1
  O  O861  1  0.15937446  0.22518081  0.13718263  1
  O  O862  1  0.15888832  0.22446650  0.63669205  1
  O  O863  1  0.16078296  0.72403482  0.13557767  1
  O  O864  1  0.15757886  0.72524436  0.63606039  1
  O  O865  1  0.09652254  0.12421861  0.36435989  1
  O  O866  1  0.09661331  0.12456018  0.86482712  1
  O  O867  1  0.09722237  0.62591067  0.36480540  1
  O  O868  1  0.09684675  0.62574219  0.86500892  1
  O  O869  1  0.84093081  0.27546490  0.36342792  1
  O  O870  1  0.83745461  0.27555789  0.86208541  1
  O  O871  1  0.66009333  0.72685764  0.12141231  1
  O  O872  1  0.66235723  0.72013235  0.61350192  1
  O  O873  1  0.33614646  0.27408615  0.38052287  1
  O  O874  1  0.83900079  0.27457068  0.86354402  1
  O  O875  1  0.83949104  0.77497162  0.36624451  1
  O  O876  1  0.84026540  0.77500261  0.86539817  1
  O  O877  1  0.83958892  0.47407598  0.36475523  1
  O  O878  1  0.83817073  0.47449953  0.86285619  1
  O  O879  1  0.83964056  0.97427112  0.36610431  1
  O  O880  1  0.84080211  0.97479929  0.86494292  1
  O  O881  1  0.16059314  0.02603132  0.13475024  1
  O  O882  1  0.15813106  0.02541930  0.63572947  1
  O  O883  1  0.15937474  0.52499267  0.13717796  1
  O  O884  1  0.15969103  0.52582925  0.63704816  1
  O  O885  1  0.66258205  0.22316879  0.11385446  1
  O  O886  1  0.65602251  0.23058465  0.61506813  1
  O  O887  1  0.66037026  0.72768827  0.12269777  1
  O  O888  1  0.66244061  0.72453168  0.61171702  1
  O  O889  1  0.33693879  0.27471571  0.37905601  1
  O  O890  1  0.33763528  0.27577135  0.89151117  1
  O  O891  1  0.45252057  0.62565564  0.60875591  1
  O  O892  1  0.54690502  0.37503989  0.39138312  1
  O  O893  1  0.54684182  0.38099704  0.90003663  1
  O  O894  1  0.54729846  0.87469828  0.39218303  1
  O  O895  1  0.54746893  0.87433746  0.89124976  1
  O  O896  1  0.59907590  0.12263578  0.38008808  1
  O  O897  1  0.60599598  0.11380912  0.89020054  1
  O  O898  1  0.59910553  0.62665518  0.38632771  1
  O  O899  1  0.60216377  0.62938793  0.88694341  1
  O  O900  1  0.66069971  0.02273874  0.12205798  1
  O  O901  1  0.54718021  0.37551510  0.90844504  1
  O  O902  1  0.54825544  0.87414054  0.39394960  1
  O  O903  1  0.54743291  0.87454211  0.89038593  1
  O  O904  1  0.60073244  0.12674682  0.38462391  1
  O  O905  1  0.45235240  0.63165724  0.60053207  1
  O  O906  1  0.54567752  0.37622078  0.38998667  1
  O  O907  1  0.54794930  0.37392510  0.90197166  1
  O  O908  1  0.54774479  0.87648604  0.39298555  1
  O  O909  1  0.54825653  0.87585899  0.39394914  1
  O  O910  1  0.54742880  0.87544921  0.89038722  1
  O  O911  1  0.60093029  0.12991689  0.38698553  1
  O  O912  1  0.60448470  0.11649988  0.88904145  1
  O  O913  1  0.60077875  0.62329122  0.38465873  1
  O  O914  1  0.60577571  0.63605804  0.88981194  1
  O  O915  1  0.65972804  0.02286934  0.12141758  1
  O  O916  1  0.66336942  0.03171374  0.61346029  1
  O  O917  1  0.66301610  0.52746189  0.11396707  1
  O  O918  1  0.65987651  0.52089658  0.61044177  1
  O  O919  1  0.33944985  0.77552315  0.38371301  1
  O  O920  1  0.33831889  0.77484101  0.88592583  1
  O  O921  1  0.33618190  0.47559337  0.38065553  1
  O  O922  1  0.33099589  0.47280254  0.89648193  1
  O  O923  1  0.33902950  0.97510308  0.38317479  1
  O  O924  1  0.33822170  0.97530478  0.88589405  1
  O  O925  1  0.95088908  0.12468973  0.14128018  1
  O  O926  1  0.94988938  0.12574887  0.64240608  1
  O  O927  1  0.95132206  0.62549782  0.14173938  1
  O  O928  1  0.95045135  0.62498014  0.64215866  1
  O  O929  1  0.66243734  0.02546934  0.61168574  1
  O  O930  1  0.66257759  0.52682044  0.11386743  1
  O  O931  1  0.65602124  0.51941831  0.61505723  1
  O  O932  1  0.15937658  0.22499950  0.13718859  1
  O  O933  1  0.15968080  0.22417397  0.63705033  1
  O  O934  1  0.16058340  0.72395850  0.13479146  1
  O  O935  1  0.15812070  0.72458460  0.63573787  1
  O  O936  1  0.09722554  0.12402020  0.36479641  1
  O  O937  1  0.09684308  0.12422984  0.86499937  1
  O  O938  1  0.09651642  0.62570429  0.36437042  1
  O  O939  1  0.66291820  0.52744348  0.11433244  1
  O  O940  1  0.66530943  0.52567995  0.60661049  1
  O  O941  1  0.15972537  0.22531682  0.13574572  1
  O  O942  1  0.15915530  0.22508932  0.63618344  1
  O  O943  1  0.16092400  0.72424183  0.13547048  1
  O  O944  1  0.15872655  0.72564618  0.63637685  1
  O  O945  1  0.09823893  0.12502103  0.36325326  1
  O  O946  1  0.09816931  0.12560863  0.86409846  1
  O  O947  1  0.09771033  0.62624613  0.36482218  1
  O  O948  1  0.09717619  0.62603524  0.86496607  1
  O  O949  1  0.66905843  0.52890084  0.60438489  1
  O  O950  1  0.15998533  0.22536902  0.13484837  1
  O  O951  1  0.15875547  0.22573471  0.63556903  1
  O  O952  1  0.15893824  0.52555519  0.63671703  1
  O  O953  1  0.33728443  0.27674509  0.38724755  1
  O  O954  1  0.32965625  0.27908077  0.89734032  1
  O  O955  1  0.33924083  0.77362739  0.38372147  1
  O  O956  1  0.33817940  0.77451869  0.88603758  1
  O  O957  1  0.33930090  0.47725278  0.37793351  1
  O  O958  1  0.33905527  0.77430966  0.88533028  1
  O  O959  1  0.33753066  0.47516346  0.37860238  1
  O  O960  1  0.34018355  0.47491453  0.88869207  1
  O  O961  1  0.83983086  0.77576815  0.86433638  1
  O  O962  1  0.83907000  0.47446366  0.36433345  1
  O  O963  1  0.33865785  0.97470021  0.88690116  1
  O  O964  1  0.95216747  0.12495863  0.14150264  1
  O  O965  1  0.95146306  0.12484195  0.64135358  1
  O  O966  1  0.95166164  0.62542750  0.14128307  1
  O  O967  1  0.95115339  0.62539292  0.64130973  1
  O  O968  1  0.45309249  0.12495505  0.10860971  1
  O  O969  1  0.45316041  0.11899605  0.59996808  1
  O  O970  1  0.45269263  0.62529903  0.10781831  1
  O  O971  1  0.39688213  0.87112681  0.61263048  1
  O  O972  1  0.16095281  0.02551478  0.13547546  1
  O  O973  1  0.95049500  0.12557589  0.64201147  1
  O  O974  1  0.95139980  0.62569439  0.14199783  1
  O  O975  1  0.95140538  0.62543708  0.64155040  1
  O  O976  1  0.45277530  0.12532167  0.10806135  1
  O  O977  1  0.45072913  0.12479474  0.60645607  1
  O  O978  1  0.45321861  0.62510918  0.10816345  1
  O  O979  1  0.54795196  0.87648486  0.39351923  1
  O  O980  1  0.54774847  0.87552030  0.89055934  1
  O  O981  1  0.60025931  0.12855745  0.38635146  1
  O  O982  1  0.60389257  0.11626465  0.88901413  1
  O  O983  1  0.59981049  0.62625601  0.38264115  1
  O  O984  1  0.60653704  0.63646241  0.89026176  1
  O  O985  1  0.66009460  0.02313372  0.12140656  1
  O  O986  1  0.66235731  0.02986857  0.61347335  1
  O  O987  1  0.60656882  0.63611615  0.89026989  1
  O  O988  1  0.66028279  0.02342636  0.11962054  1
  O  O989  1  0.66194306  0.02819623  0.61375500  1
  O  O990  1  0.66254591  0.52711223  0.11431045  1
  O  O991  1  0.40016439  0.37498202  0.12213604  1
  O  O992  1  0.39207043  0.37500204  0.60678140  1
  O  O993  1  0.40029425  0.87501974  0.11278697  1
  O  O994  1  0.39673616  0.87499814  0.61265841  1
  O  O995  1  0.16078159  0.02595455  0.13553199  1
  O  O996  1  0.15756809  0.02476822  0.63604576  1
  O  O997  1  0.15937748  0.52480840  0.13716113  1
  O  O998  1  0.04842881  0.87500425  0.85788675  1
