# generated using pymatgen
data_Li15Fe16(PO4)16
_symmetry_space_group_name_H-M   'P 1'
_cell_length_a   10.33851817
_cell_length_b   12.50299017
_cell_length_c   9.47723191
_cell_angle_alpha   89.99999803
_cell_angle_beta   89.99984358
_cell_angle_gamma   90.00000385
_symmetry_Int_Tables_number   1
_chemical_formula_structural   Li15Fe16(PO4)16
_chemical_formula_sum   'Li135 Fe144 P144 O576'
_cell_volume   1225.04965747
_cell_formula_units_Z   9
loop_
 _symmetry_equiv_pos_site_id
 _symmetry_equiv_pos_as_xyz
  1  'x, y, z'
loop_
 _atom_site_type_symbol
 _atom_site_label
 _atom_site_symmetry_multiplicity
 _atom_site_fract_x
 _atom_site_fract_y
 _atom_site_fract_z
 _atom_site_occupancy
  Li  Li0  1  -0.00147242  0.49943544  0.50140397  1
  Li  Li1  1  0.49713638  0.25410892  0.24066731  1
  Li  Li2  1  0.50289429  0.74585608  0.25938945  1
  Li  Li3  1  0.00061551  0.00096682  0.49915701  1
  Li  Li4  1  -0.00057229  0.49908566  0.00077334  1
  Li  Li5  1  0.00074706  0.00216649  -0.00176299  1
  Li  Li6  1  -0.00070473  0.49788689  0.50169735  1
  Li  Li7  1  0.50001132  0.24998069  0.25001750  1
  Li  Li8  1  0.50000713  0.74998397  0.25001995  1
  Li  Li9  1  0.50002066  0.74997515  0.75003306  1
  Li  Li10  1  0.50286114  0.00410836  0.25932558  1
  Li  Li11  1  0.50540032  0.01684641  0.76032149  1
  Li  Li12  1  0.49710222  0.49585784  0.24061292  1
  Li  Li13  1  0.49458787  0.48312955  0.73965325  1
  Li  Li14  1  0.00149609  0.24940969  -0.00143942  1
  Li  Li15  1  -0.00151587  0.25063139  0.50147978  1
  Li  Li16  1  0.00090514  0.74972854  -0.00040388  1
  Li  Li17  1  -0.00098382  0.75034859  0.50051373  1
  Li  Li18  1  0.00158995  0.00174204  -0.00203285  1
  Li  Li19  1  0.50542239  0.73312309  0.76034303  1
  Li  Li20  1  0.49999341  -0.00001589  0.24997996  1
  Li  Li21  1  0.49998253  -0.00002373  0.74997325  1
  Li  Li22  1  0.49998184  0.49997605  0.24997391  1
  Li  Li23  1  0.49459876  0.26685995  0.73967241  1
  Li  Li24  1  0.00164387  0.00113392  0.49845279  1
  Li  Li25  1  0.00025528  0.49981536  -0.00049822  1
  Li  Li26  1  0.00023904  0.49831653  0.50128035  1
  Li  Li27  1  0.49705024  0.25150370  0.24435085  1
  Li  Li28  1  0.50110207  0.74805937  0.25312872  1
  Li  Li29  1  -0.00059891  0.25095265  0.00081196  1
  Li  Li30  1  -0.00076639  0.25219874  0.50177809  1
  Li  Li31  1  0.00072020  0.74786791  -0.00171755  1
  Li  Li32  1  0.00054451  0.74912319  0.49925694  1
  Li  Li33  1  0.50266224  0.00351550  0.25585063  1
  Li  Li34  1  0.50292859  0.00919962  0.75615584  1
  Li  Li35  1  0.49537864  0.49754340  0.24169199  1
  Li  Li36  1  0.52861039  0.31654388  0.72077086  1
  Li  Li37  1  0.00099757  0.24959634  -0.00180292  1
  Li  Li38  1  0.00199045  0.25121745  0.50119785  1
  Li  Li39  1  0.50293115  0.74213351  0.75564282  1
  Li  Li40  1  0.50466643  0.00538701  0.26101461  1
  Li  Li41  1  0.50548192  0.01590172  0.76031915  1
  Li  Li42  1  0.49488725  0.49555836  0.23936289  1
  Li  Li43  1  0.50959877  0.45936119  0.72975370  1
  Li  Li44  1  0.00069212  0.24877652  -0.00168675  1
  Li  Li45  1  -0.00067208  0.25026411  0.50152867  1
  Li  Li46  1  0.00063580  0.75016505  0.00034448  1
  Li  Li47  1  -0.00058037  0.75047673  0.50087963  1
  Li  Li48  1  0.00304864  0.25057402  0.50079006  1
  Li  Li49  1  0.00136566  0.74897930  -0.00136705  1
  Li  Li50  1  0.00076042  0.74973085  0.49923572  1
  Li  Li51  1  0.00056924  0.00007285  -0.00004361  1
  Li  Li52  1  0.00053698  0.00028599  0.49980491  1
  Li  Li53  1  0.00093394  0.50157471  -0.00223702  1
  Li  Li54  1  0.00072581  0.50036196  0.50108113  1
  Li  Li55  1  0.49415853  0.25404357  0.23850733  1
  Li  Li56  1  0.50483761  0.74436570  0.26111797  1
  Li  Li57  1  0.50524752  0.73485670  0.75956356  1
  Li  Li58  1  0.00151186  0.50062110  -0.00147910  1
  Li  Li59  1  0.00165764  0.50188629  -0.00301192  1
  Li  Li60  1  0.00220968  0.50044166  0.50063025  1
  Li  Li61  1  0.49378156  0.25399130  0.23832742  1
  Li  Li62  1  0.50458864  0.74405400  0.26057294  1
  Li  Li63  1  0.50507411  0.73641339  0.75829133  1
  Li  Li64  1  0.50369896  0.00479013  0.25778513  1
  Li  Li65  1  0.50360501  0.00994759  0.75671460  1
  Li  Li66  1  0.49410308  0.49678811  0.23995147  1
  Li  Li67  1  0.54626788  0.34554554  0.71456525  1
  Li  Li68  1  0.00154207  0.24886299  -0.00286460  1
  Li  Li69  1  0.50469867  0.74455608  0.26108221  1
  Li  Li70  1  0.50544558  0.73405347  0.76032773  1
  Li  Li71  1  0.50375298  0.74514001  0.25787855  1
  Li  Li72  1  0.50360517  0.74003674  0.75673406  1
  Li  Li73  1  0.50455536  0.00588860  0.26048591  1
  Li  Li74  1  0.50511380  0.01350066  0.75826047  1
  Li  Li75  1  0.49376491  0.49594294  0.23826295  1
  Li  Li76  1  0.54626991  0.40445441  0.71456132  1
  Li  Li77  1  0.00159737  0.24819590  -0.00287864  1
  Li  Li78  1  0.00202054  0.24976003  0.50086560  1
  Li  Li79  1  0.00110818  0.74928566  -0.00097664  1
  Li  Li80  1  0.00028744  0.75001253  0.49975303  1
  Li  Li81  1  0.50106754  0.00186845  0.25304896  1
  Li  Li82  1  0.50295048  0.00783587  0.75562675  1
  Li  Li83  1  0.49696723  0.49839655  0.24426315  1
  Li  Li84  1  0.50958014  0.29060213  0.72976493  1
  Li  Li85  1  0.00021452  0.25024770  -0.00040679  1
  Li  Li86  1  0.00003778  0.25196328  0.50159090  1
  Li  Li87  1  0.00153245  0.74831708  -0.00192598  1
  Li  Li88  1  0.00134722  0.74922028  0.49883567  1
  Li  Li89  1  0.00094866  0.00030975  -0.00048084  1
  Li  Li90  1  -0.00076961  -0.00016227  0.50028469  1
  Li  Li91  1  0.55107289  0.37501091  0.71053258  1
  Li  Li92  1  0.00161866  0.24839297  -0.00296392  1
  Li  Li93  1  0.00376289  0.24976405  0.50035191  1
  Li  Li94  1  0.00123955  0.74911070  -0.00134085  1
  Li  Li95  1  0.00064259  0.74994675  0.49946634  1
  Li  Li96  1  0.00117738  0.00080234  -0.00110819  1
  Li  Li97  1  0.00045915  0.00019218  0.49950122  1
  Li  Li98  1  0.00151025  0.74862330  -0.00165653  1
  Li  Li99  1  0.00103211  0.74948264  0.49903242  1
  Li  Li100  1  0.00066884  -0.00011687  0.00019124  1
  Li  Li101  1  0.00014384  0.00019240  0.50009137  1
  Li  Li102  1  0.00074334  0.50129418  -0.00177766  1
  Li  Li103  1  -0.00054789  0.49992294  0.50133344  1
  Li  Li104  1  0.49490703  0.25439919  0.23939124  1
  Li  Li105  1  0.50270910  0.74642275  0.25593215  1
  Li  Li106  1  0.50293179  0.74078512  0.75617930  1
  Li  Li107  1  0.50479846  0.00558667  0.26105094  1
  Li  Li108  1  0.50525037  0.01512075  0.75954961  1
  Li  Li109  1  0.49413766  0.49590524  0.23846354  1
  Li  Li110  1  0.00144054  0.00111544  -0.00151626  1
  Li  Li111  1  0.00111851  0.00062035  0.49890198  1
  Li  Li112  1  0.00159285  0.50121208  -0.00297708  1
  Li  Li113  1  0.00339440  0.49975136  0.50048979  1
  Li  Li114  1  0.49413883  0.25312492  0.24005697  1
  Li  Li115  1  0.00131673  0.00098223  -0.00147725  1
  Li  Li116  1  0.00082285  0.00027336  0.49919794  1
  Li  Li117  1  0.00165494  0.50166155  -0.00305519  1
  Li  Li118  1  0.00409961  0.50055570  0.49990954  1
  Li  Li119  1  0.49368972  0.25371985  0.23856254  1
  Li  Li120  1  0.50410952  0.74423753  0.25950940  1
  Li  Li121  1  0.50484904  0.73850018  0.75755772  1
  Li  Li122  1  0.50405954  0.00567880  0.25940749  1
  Li  Li123  1  0.50484039  0.01147285  0.75753783  1
  Li  Li124  1  0.49367048  0.49621167  0.23845866  1
  Li  Li125  1  0.00156644  0.00144839  -0.00177730  1
  Li  Li126  1  0.52861874  0.43344200  0.72076599  1
  Li  Li127  1  0.00085582  0.24851564  -0.00211457  1
  Li  Li128  1  0.00060470  0.24980214  0.50126641  1
  Li  Li129  1  0.00051226  0.74999996  0.00007328  1
  Li  Li130  1  0.00035931  0.74991730  0.50006583  1
  Li  Li131  1  0.00127797  0.00076338  0.49874028  1
  Li  Li132  1  0.00105887  0.50047095  -0.00189052  1
  Li  Li133  1  0.00213160  0.49895488  0.50099855  1
  Li  Li134  1  0.49544334  0.25236938  0.24179214  1
  Fe  Fe135  1  0.28359746  0.62320757  0.48343844  1
  Fe  Fe136  1  0.28381375  0.62317848  0.98133209  1
  Fe  Fe137  1  0.21793307  0.37515232  0.23303268  1
  Fe  Fe138  1  0.22159263  0.37461871  0.73731211  1
  Fe  Fe139  1  0.21792465  0.87453308  0.23274118  1
  Fe  Fe140  1  0.77840130  0.12538668  0.76269217  1
  Fe  Fe141  1  0.78207573  0.62546560  0.26726073  1
  Fe  Fe142  1  0.78191080  0.62516909  0.76685622  1
  Fe  Fe143  1  0.78206395  0.12485787  0.26696182  1
  Fe  Fe144  1  0.71621641  0.37467330  0.01558463  1
  Fe  Fe145  1  0.28472315  0.62254103  0.98025951  1
  Fe  Fe146  1  0.21685913  0.37465193  0.23143854  1
  Fe  Fe147  1  0.28190041  0.62407236  0.48304448  1
  Fe  Fe148  1  0.28420293  0.62335265  0.98154269  1
  Fe  Fe149  1  0.21696303  0.37466039  0.23147654  1
  Fe  Fe150  1  0.22009958  0.37402436  0.73769672  1
  Fe  Fe151  1  0.21842916  0.87483655  0.23195165  1
  Fe  Fe152  1  0.21874997  0.87449689  0.73326902  1
  Fe  Fe153  1  0.78162323  0.12400897  0.26840251  1
  Fe  Fe154  1  0.77839521  0.12520292  0.76368528  1
  Fe  Fe155  1  0.71547697  0.87474607  0.52087930  1
  Fe  Fe156  1  0.28318479  0.12447351  0.48402198  1
  Fe  Fe157  1  0.28463345  0.12728355  0.98198087  1
  Fe  Fe158  1  0.22032379  0.37400084  0.73672538  1
  Fe  Fe159  1  0.21843669  0.87456785  0.23208476  1
  Fe  Fe160  1  0.21875143  0.87440019  0.73309564  1
  Fe  Fe161  1  0.78182870  0.12409840  0.26833865  1
  Fe  Fe162  1  0.77854635  0.12490741  0.76314549  1
  Fe  Fe163  1  0.78196758  0.62509675  0.26863062  1
  Fe  Fe164  1  0.78041411  0.62450286  0.76662095  1
  Fe  Fe165  1  0.28189987  0.12591998  0.48304123  1
  Fe  Fe166  1  0.28420516  0.12663693  0.98153441  1
  Fe  Fe167  1  0.28319212  0.62551961  0.48402596  1
  Fe  Fe168  1  0.28462768  0.62270846  0.98199240  1
  Fe  Fe169  1  0.21696368  0.37533783  0.23148384  1
  Fe  Fe170  1  0.22009647  0.37598091  0.73769585  1
  Fe  Fe171  1  0.21842593  0.87515844  0.23195333  1
  Fe  Fe172  1  0.21875007  0.87550913  0.73326750  1
  Fe  Fe173  1  0.78229552  0.12500742  0.26816651  1
  Fe  Fe174  1  0.78155445  0.62555736  0.26875927  1
  Fe  Fe175  1  0.77911660  0.62384715  0.76552341  1
  Fe  Fe176  1  0.71782585  0.37433089  0.02094090  1
  Fe  Fe177  1  0.71924446  0.37261711  0.50670756  1
  Fe  Fe178  1  0.71627303  0.87554649  0.01654462  1
  Fe  Fe179  1  0.71504583  0.87475484  0.52142439  1
  Fe  Fe180  1  0.28279923  0.12475637  0.48374492  1
  Fe  Fe181  1  0.28464821  0.12711352  0.98193903  1
  Fe  Fe182  1  0.28126710  0.62563028  0.48264050  1
  Fe  Fe183  1  0.28391656  0.62354225  0.98200153  1
  Fe  Fe184  1  0.21793132  0.37485922  0.23303635  1
  Fe  Fe185  1  0.22159618  0.37539259  0.73731309  1
  Fe  Fe186  1  0.21792502  0.87545669  0.23273607  1
  Fe  Fe187  1  0.21808706  0.87516887  0.73314963  1
  Fe  Fe188  1  0.71771472  0.37380170  0.02011457  1
  Fe  Fe189  1  0.71675224  0.37106162  0.51185879  1
  Fe  Fe190  1  0.71637455  0.87577527  0.01677824  1
  Fe  Fe191  1  0.71597351  0.37263776  0.51821046  1
  Fe  Fe192  1  0.71640019  0.87679440  0.01656534  1
  Fe  Fe193  1  0.71618766  0.87681283  0.51866239  1
  Fe  Fe194  1  0.28379379  0.12532030  0.48441431  1
  Fe  Fe195  1  0.28403716  0.12736074  0.98177837  1
  Fe  Fe196  1  0.21809498  0.87483272  0.73315080  1
  Fe  Fe197  1  0.78202504  0.12432892  0.26819007  1
  Fe  Fe198  1  0.78121043  0.12555639  0.76718222  1
  Fe  Fe199  1  0.78202333  0.62568367  0.26822118  1
  Fe  Fe200  1  0.77888702  0.62501268  0.76311135  1
  Fe  Fe201  1  0.71708248  0.37607183  0.01833131  1
  Fe  Fe202  1  0.71558727  0.37903272  0.51567369  1
  Fe  Fe203  1  0.71667768  0.87366128  0.01690692  1
  Fe  Fe204  1  0.71581398  0.87487266  0.52037268  1
  Fe  Fe205  1  0.28263013  0.12720509  0.48317876  1
  Fe  Fe206  1  0.28474112  0.12744668  0.98024747  1
  Fe  Fe207  1  0.28360648  0.62569093  0.48409456  1
  Fe  Fe208  1  0.21748076  0.37481583  0.23197515  1
  Fe  Fe209  1  0.22104000  0.37450289  0.73821326  1
  Fe  Fe210  1  0.21845284  0.87505170  0.23180257  1
  Fe  Fe211  1  0.21859237  0.87480263  0.73339848  1
  Fe  Fe212  1  0.78140675  0.12410338  0.26874103  1
  Fe  Fe213  1  0.77812281  0.12653148  0.76434103  1
  Fe  Fe214  1  0.78141281  0.62590946  0.26873637  1
  Fe  Fe215  1  0.77814243  0.62346469  0.76435661  1
  Fe  Fe216  1  0.71745100  0.37499125  0.02098035  1
  Fe  Fe217  1  0.72070590  0.37498291  0.50413298  1
  Fe  Fe218  1  0.78207353  0.62515247  0.26696341  1
  Fe  Fe219  1  0.77840560  0.62461437  0.76268912  1
  Fe  Fe220  1  0.71621104  0.37532308  0.01558275  1
  Fe  Fe221  1  0.71597955  0.37735582  0.51821221  1
  Fe  Fe222  1  0.71640771  0.87320192  0.01656272  1
  Fe  Fe223  1  0.71619152  0.87316642  0.51867595  1
  Fe  Fe224  1  0.28360843  0.12679544  0.48343152  1
  Fe  Fe225  1  0.28382035  0.12681237  0.98132354  1
  Fe  Fe226  1  0.28377149  0.62467384  0.48441793  1
  Fe  Fe227  1  0.28403419  0.62263379  0.98178786  1
  Fe  Fe228  1  0.77890759  0.12498572  0.76310265  1
  Fe  Fe229  1  0.78231256  0.62500232  0.26818028  1
  Fe  Fe230  1  0.78119216  0.62442579  0.76721571  1
  Fe  Fe231  1  0.71708024  0.37392077  0.01833449  1
  Fe  Fe232  1  0.71559624  0.37096316  0.51566923  1
  Fe  Fe233  1  0.71666674  0.87632060  0.01690243  1
  Fe  Fe234  1  0.71580819  0.87510541  0.52035727  1
  Fe  Fe235  1  0.28363451  0.12429426  0.48409807  1
  Fe  Fe236  1  0.28436515  0.12698118  0.98188432  1
  Fe  Fe237  1  0.28258548  0.62279593  0.48317975  1
  Fe  Fe238  1  0.28433438  0.62301245  0.98187064  1
  Fe  Fe239  1  0.21685578  0.37535818  0.23143171  1
  Fe  Fe240  1  0.22032637  0.37602226  0.73672797  1
  Fe  Fe241  1  0.21844964  0.87540883  0.23206669  1
  Fe  Fe242  1  0.21873143  0.87560768  0.73308922  1
  Fe  Fe243  1  0.78207220  0.12453695  0.26726458  1
  Fe  Fe244  1  0.78190949  0.12482745  0.76685348  1
  Fe  Fe245  1  0.28280599  0.62523352  0.48374019  1
  Fe  Fe246  1  0.28464396  0.62288171  0.98194909  1
  Fe  Fe247  1  0.21747960  0.37517716  0.23197494  1
  Fe  Fe248  1  0.22104180  0.37550103  0.73821218  1
  Fe  Fe249  1  0.21845364  0.87494903  0.23180468  1
  Fe  Fe250  1  0.21859309  0.87520831  0.73339473  1
  Fe  Fe251  1  0.78197303  0.12491171  0.26861925  1
  Fe  Fe252  1  0.78041211  0.12549786  0.76660631  1
  Fe  Fe253  1  0.78182754  0.62590238  0.26834497  1
  Fe  Fe254  1  0.77854338  0.62508785  0.76315795  1
  Fe  Fe255  1  0.71771775  0.37619059  0.02011752  1
  Fe  Fe256  1  0.71675163  0.37894331  0.51185815  1
  Fe  Fe257  1  0.71636953  0.87420958  0.01677187  1
  Fe  Fe258  1  0.71547441  0.87525692  0.52087705  1
  Fe  Fe259  1  0.71642461  0.87499045  0.01635116  1
  Fe  Fe260  1  0.71473950  0.87499305  0.52162678  1
  Fe  Fe261  1  0.28239413  0.12497500  0.48366768  1
  Fe  Fe262  1  0.28446177  0.12686562  0.98188702  1
  Fe  Fe263  1  0.28244355  0.62501912  0.48368300  1
  Fe  Fe264  1  0.28446518  0.62312434  0.98190311  1
  Fe  Fe265  1  0.21767020  0.37499099  0.23170135  1
  Fe  Fe266  1  0.22118743  0.37500732  0.73820599  1
  Fe  Fe267  1  0.21861881  0.87500433  0.23189654  1
  Fe  Fe268  1  0.21847929  0.87500679  0.73349134  1
  Fe  Fe269  1  0.78155551  0.12445436  0.26874236  1
  Fe  Fe270  1  0.77911176  0.12615778  0.76550874  1
  Fe  Fe271  1  0.78162516  0.62599325  0.26840842  1
  Fe  Fe272  1  0.77840231  0.62479593  0.76370165  1
  Fe  Fe273  1  0.71782543  0.37565277  0.02094027  1
  Fe  Fe274  1  0.71923947  0.37736581  0.50670335  1
  Fe  Fe275  1  0.71626883  0.87443143  0.01654149  1
  Fe  Fe276  1  0.71503933  0.87524264  0.52142605  1
  Fe  Fe277  1  0.28125548  0.12436555  0.48264089  1
  Fe  Fe278  1  0.28391803  0.12644995  0.98199272  1
  P  P279  1  0.09226606  0.12470296  0.20298358  1
  P  P280  1  0.09145870  0.12500114  0.70258244  1
  P  P281  1  0.09207670  0.62486987  0.20186253  1
  P  P282  1  0.09159910  0.62456421  0.70186518  1
  P  P283  1  0.40565780  0.37800080  0.44959472  1
  P  P284  1  0.40697217  0.37569942  0.95639353  1
  P  P285  1  0.40643459  0.87692651  0.45153158  1
  P  P286  1  0.40756664  0.87550955  0.95085663  1
  P  P287  1  0.59400098  0.12292259  0.04934533  1
  P  P288  1  0.59132222  0.12749078  0.54850489  1
  P  P289  1  0.59470586  0.62818001  0.05044255  1
  P  P290  1  0.59260048  0.62600162  0.54493142  1
  P  P291  1  0.90799668  0.37488191  0.29810662  1
  P  P292  1  0.90737998  0.37540578  0.79741953  1
  P  P293  1  0.90788890  0.87543000  0.29914262  1
  P  P294  1  0.90766416  0.87457090  0.29929935  1
  P  P295  1  0.90823648  0.87475896  0.79864316  1
  P  P296  1  0.40698638  0.37561213  0.95661718  1
  P  P297  1  0.40640961  0.87349664  0.45167167  1
  P  P298  1  0.40711130  0.87440600  0.95161092  1
  P  P299  1  0.59434119  0.12199351  0.05040185  1
  P  P300  1  0.59301203  0.12439150  0.54337150  1
  P  P301  1  0.59288055  0.62559251  0.54839710  1
  P  P302  1  0.90773249  0.37529405  0.29701228  1
  P  P303  1  0.90854775  0.37499001  0.79742022  1
  P  P304  1  0.90792448  0.87512449  0.29813995  1
  P  P305  1  0.90840426  0.87543273  0.79814143  1
  P  P306  1  0.40644971  0.87364013  0.45153431  1
  P  P307  1  0.40732331  0.87475556  0.95081599  1
  P  P308  1  0.09082663  0.62447881  0.70248422  1
  P  P309  1  0.40350522  0.37463211  0.44610992  1
  P  P310  1  0.40592774  0.37453225  0.95745768  1
  P  P311  1  0.59266491  0.12394739  0.54487620  1
  P  P312  1  0.59399537  0.62706951  0.04936346  1
  P  P313  1  0.59131800  0.62250657  0.54850715  1
  P  P314  1  0.09171984  0.62553264  0.20270328  1
  P  P315  1  0.09141153  0.62549012  0.70268263  1
  P  P316  1  0.40411297  0.37497074  0.44718478  1
  P  P317  1  0.90889340  0.37502236  0.29804486  1
  P  P318  1  0.90666551  0.37442390  0.79692754  1
  P  P319  1  0.59488260  0.12157800  0.05043041  1
  P  P320  1  0.09151503  0.12480553  0.20256813  1
  P  P321  1  0.59358917  0.12349678  0.04832801  1
  P  P322  1  0.59289057  0.12440439  0.54839235  1
  P  P323  1  0.59434381  0.62800392  0.05041848  1
  P  P324  1  0.59299267  0.62560332  0.54340840  1
  P  P325  1  0.90773128  0.37470533  0.29701469  1
  P  P326  1  0.90854713  0.37499584  0.79742549  1
  P  P327  1  0.90792511  0.87487672  0.29815374  1
  P  P328  1  0.90840298  0.87455994  0.79813823  1
  P  P329  1  0.09114529  0.62550706  0.70276203  1
  P  P330  1  0.40351838  0.37535358  0.44611346  1
  P  P331  1  0.40593037  0.37546089  0.95745564  1
  P  P332  1  0.40645069  0.87635539  0.45153268  1
  P  P333  1  0.40732021  0.87524139  0.95081589  1
  P  P334  1  0.59418393  0.12241744  0.04989243  1
  P  P335  1  0.59026322  0.12879276  0.54858692  1
  P  P336  1  0.59487864  0.62841042  0.05044544  1
  P  P337  1  0.09076506  0.12475413  0.70275770  1
  P  P338  1  0.09106160  0.62498530  0.20207781  1
  P  P339  1  0.09043153  0.62481486  0.70259128  1
  P  P340  1  0.40393022  0.37489598  0.44624590  1
  P  P341  1  0.40460718  0.37493437  0.95867252  1
  P  P342  1  0.40659390  0.87453593  0.45149938  1
  P  P343  1  0.40707139  0.87495784  0.95094444  1
  P  P344  1  0.59463088  0.12172610  0.05011840  1
  P  P345  1  0.59122299  0.12856160  0.54761248  1
  P  P346  1  0.59425670  0.62764063  0.04976264  1
  P  P347  1  0.90750210  0.87498864  0.79840638  1
  P  P348  1  0.09106878  0.12499480  0.20207124  1
  P  P349  1  0.09042882  0.12518806  0.70257515  1
  P  P350  1  0.09151214  0.62517527  0.20258468  1
  P  P351  1  0.09076812  0.62524639  0.70276368  1
  P  P352  1  0.40396738  0.37505412  0.44626167  1
  P  P353  1  0.40460569  0.37505626  0.95867235  1
  P  P354  1  0.40659388  0.87546298  0.45150119  1
  P  P355  1  0.40707374  0.87504102  0.95093845  1
  P  P356  1  0.59426492  0.12236454  0.04975501  1
  P  P357  1  0.90666665  0.37556126  0.79692855  1
  P  P358  1  0.90766173  0.87543037  0.29929365  1
  P  P359  1  0.90823641  0.87521486  0.79864212  1
  P  P360  1  0.09218222  0.12518281  0.20113629  1
  P  P361  1  0.09114829  0.12582920  0.70199891  1
  P  P362  1  0.09217192  0.62477918  0.20115705  1
  P  P363  1  0.09113577  0.62418913  0.70198296  1
  P  P364  1  0.40410616  0.37500486  0.44718800  1
  P  P365  1  0.40696924  0.37429313  0.95639281  1
  P  P366  1  0.40643340  0.87306797  0.45152644  1
  P  P367  1  0.40756187  0.87448780  0.95086069  1
  P  P368  1  0.59471263  0.12180638  0.05041658  1
  P  P369  1  0.59197220  0.12574759  0.54577876  1
  P  P370  1  0.59417948  0.62757232  0.04990251  1
  P  P371  1  0.59026619  0.62121149  0.54859786  1
  P  P372  1  0.59198074  0.62425306  0.54579399  1
  P  P373  1  0.90889534  0.37497164  0.29804587  1
  P  P374  1  0.58959487  0.13039569  0.54944299  1
  P  P375  1  0.59462731  0.62825429  0.05013461  1
  P  P376  1  0.59126970  0.62139528  0.54763297  1
  P  P377  1  0.90992847  0.37498743  0.29740120  1
  P  P378  1  0.90621842  0.37546947  0.79604185  1
  P  P379  1  0.90742050  0.87520630  0.29938717  1
  P  P380  1  0.90786498  0.87520761  0.79856054  1
  P  P381  1  0.09154863  0.12519144  0.20156811  1
  P  P382  1  0.09082645  0.12552064  0.70248152  1
  P  P383  1  0.09157340  0.62535735  0.20259168  1
  P  P384  1  0.40454756  0.37499359  0.95826733  1
  P  P385  1  0.40669480  0.87499781  0.45166513  1
  P  P386  1  0.40706184  0.87499895  0.95102346  1
  P  P387  1  0.59440677  0.12198615  0.04987273  1
  P  P388  1  0.59003963  0.13115723  0.54956141  1
  P  P389  1  0.59440565  0.62799611  0.04988479  1
  P  P390  1  0.59006912  0.61883331  0.54957362  1
  P  P391  1  0.91019346  0.37500746  0.29734786  1
  P  P392  1  0.90614414  0.37498403  0.79579511  1
  P  P393  1  0.90733420  0.87499634  0.29943787  1
  P  P394  1  0.58960584  0.61960442  0.54945302  1
  P  P395  1  0.90992800  0.37500945  0.29740256  1
  P  P396  1  0.90621487  0.37451914  0.79604062  1
  P  P397  1  0.90742354  0.87479472  0.29939534  1
  P  P398  1  0.90786640  0.87476905  0.79855768  1
  P  P399  1  0.09134795  0.12486426  0.20254471  1
  P  P400  1  0.09031765  0.12494060  0.70278356  1
  P  P401  1  0.09134800  0.62511184  0.20255111  1
  P  P402  1  0.09033686  0.62507057  0.70280762  1
  P  P403  1  0.40406716  0.37499776  0.44586679  1
  P  P404  1  0.90845757  0.87518833  0.79868118  1
  P  P405  1  0.09207493  0.12512203  0.20185216  1
  P  P406  1  0.09160174  0.12544058  0.70186895  1
  P  P407  1  0.09226315  0.62529127  0.20299465  1
  P  P408  1  0.09145017  0.62499379  0.70258756  1
  P  P409  1  0.40565629  0.37198701  0.44960141  1
  P  P410  1  0.40698426  0.37439341  0.95662856  1
  P  P411  1  0.40641267  0.87651035  0.45166683  1
  P  P412  1  0.40711354  0.87559258  0.95160888  1
  P  P413  1  0.90799481  0.37511180  0.29810746  1
  P  P414  1  0.90738050  0.37457664  0.79741287  1
  P  P415  1  0.90788656  0.87458292  0.29911061  1
  P  P416  1  0.90846510  0.87475401  0.79870117  1
  P  P417  1  0.09158030  0.12462374  0.20257294  1
  P  P418  1  0.09114460  0.12449297  0.70276231  1
  P  P419  1  0.09153981  0.62478718  0.20157420  1
  P  P420  1  0.59358485  0.62650848  0.04834118  1
  P  P421  1  0.09173626  0.12444782  0.20268774  1
  P  P422  1  0.09142128  0.12450987  0.70268261  1
  O  O423  1  0.09816596  0.12391878  0.36510388  1
  O  O424  1  0.09711723  0.12436896  0.86486643  1
  O  O425  1  0.39783237  0.87062256  0.61307140  1
  O  O426  1  0.16093721  0.02553254  0.13567767  1
  O  O427  1  0.15957269  0.02485958  0.63681957  1
  O  O428  1  0.15957245  0.52474170  0.13528062  1
  O  O429  1  0.15911456  0.52458861  0.63546397  1
  O  O430  1  0.90139011  0.87489221  0.13613237  1
  O  O431  1  0.90222326  0.87498381  0.63596451  1
  O  O432  1  0.04782828  0.37504478  0.35849660  1
  O  O433  1  0.04854609  0.37516422  0.85864706  1
  O  O434  1  0.04834109  0.87458034  0.35871264  1
  O  O435  1  0.83930341  0.77561508  0.36635317  1
  O  O436  1  0.84038397  0.77518340  0.86494459  1
  O  O437  1  0.84136453  0.47536857  0.36194888  1
  O  O438  1  0.83841886  0.47526743  0.86289790  1
  O  O439  1  0.83921575  0.97477916  0.36636855  1
  O  O440  1  0.84004190  0.97502249  0.86512128  1
  O  O441  1  0.90290033  0.37460250  0.13556329  1
  O  O442  1  0.90203741  0.37535613  0.63369564  1
  O  O443  1  0.90086887  0.87521977  0.13736332  1
  O  O444  1  0.90018923  0.87532807  0.63647223  1
  O  O445  1  0.33099201  0.27719059  0.89648400  1
  O  O446  1  0.90240313  0.37559658  0.13603892  1
  O  O447  1  0.90192431  0.37467482  0.63518296  1
  O  O448  1  0.90133836  0.87431757  0.13707928  1
  O  O449  1  0.09861647  0.62507784  0.36386881  1
  O  O450  1  0.09777358  0.62499073  0.86404258  1
  O  O451  1  0.83922381  0.27507231  0.36184542  1
  O  O452  1  0.83946060  0.27543510  0.86271966  1
  O  O453  1  0.83936554  0.77561717  0.36477178  1
  O  O454  1  0.65745943  0.52140427  0.61530796  1
  O  O455  1  0.15952485  0.22483021  0.13738235  1
  O  O456  1  0.16001158  0.22422475  0.63715952  1
  O  O457  1  0.16087583  0.72409816  0.13440423  1
  O  O458  1  0.15911479  0.72399285  0.63544562  1
  O  O459  1  0.95115886  0.12461864  0.64130704  1
  O  O460  1  0.95216978  0.62504847  0.14150047  1
  O  O461  1  0.95145505  0.62516291  0.64135225  1
  O  O462  1  0.45269949  0.12469597  0.10781649  1
  O  O463  1  0.45252927  0.12433706  0.60874845  1
  O  O464  1  0.45309190  0.62503868  0.10861829  1
  O  O465  1  0.45311976  0.63095271  0.59995489  1
  O  O466  1  0.54689906  0.37495945  0.39137905  1
  O  O467  1  0.54683474  0.36899556  0.90003669  1
  O  O468  1  0.54730275  0.87529484  0.39218382  1
  O  O469  1  0.33921231  0.77626835  0.38412200  1
  O  O470  1  0.33866022  0.77501265  0.88581617  1
  O  O471  1  0.33616916  0.47589508  0.38048015  1
  O  O472  1  0.32962207  0.47244311  0.89720256  1
  O  O473  1  0.33896727  0.97606683  0.38328748  1
  O  O474  1  0.33887546  0.97560617  0.88544314  1
  O  O475  1  0.90203153  0.37457426  0.63369902  1
  O  O476  1  0.90086192  0.87474844  0.13736971  1
  O  O477  1  0.90018575  0.87456599  0.63647636  1
  O  O478  1  0.04968742  0.37488584  0.35890898  1
  O  O479  1  0.04613676  0.37497246  0.85774860  1
  O  O480  1  0.04839240  0.87484259  0.35858175  1
  O  O481  1  0.04871571  0.87473141  0.85809604  1
  O  O482  1  0.40002989  0.37456783  0.12248264  1
  O  O483  1  0.39305222  0.37598410  0.60723065  1
  O  O484  1  0.40022095  0.87462714  0.11271869  1
  O  O485  1  0.83950667  0.97503602  0.36623501  1
  O  O486  1  0.84025740  0.97498040  0.86535132  1
  O  O487  1  0.90239861  0.37436338  0.13604164  1
  O  O488  1  0.90180544  0.37561954  0.63467595  1
  O  O489  1  0.90111541  0.87560567  0.13725482  1
  O  O490  1  0.33875956  0.97317016  0.38460185  1
  O  O491  1  0.33919979  0.97372385  0.38412437  1
  O  O492  1  0.33867976  0.97498579  0.88579661  1
  O  O493  1  0.95129464  0.12435823  0.14190215  1
  O  O494  1  0.95096178  0.12465551  0.64193975  1
  O  O495  1  0.95108318  0.62511843  0.14139271  1
  O  O496  1  0.95020273  0.62415310  0.64242681  1
  O  O497  1  0.45333033  0.12509651  0.10809750  1
  O  O498  1  0.45152325  0.11843014  0.60069570  1
  O  O499  1  0.45280924  0.62478278  0.10837919  1
  O  O500  1  0.16054819  0.02604291  0.13517633  1
  O  O501  1  0.15738209  0.02485826  0.63586060  1
  O  O502  1  0.15946178  0.52483547  0.13724712  1
  O  O503  1  0.15936747  0.52564723  0.63692608  1
  O  O504  1  0.66292612  0.22286858  0.11410590  1
  O  O505  1  0.65392209  0.23310011  0.61535851  1
  O  O506  1  0.65998789  0.72756346  0.12247418  1
  O  O507  1  0.66332233  0.72117937  0.61246783  1
  O  O508  1  0.33658134  0.27453673  0.37988024  1
  O  O509  1  0.33214126  0.27656934  0.89616137  1
  O  O510  1  0.90070102  0.87425354  0.63659281  1
  O  O511  1  0.04889573  0.37492768  0.35922613  1
  O  O512  1  0.04683178  0.37496060  0.85815975  1
  O  O513  1  0.04856055  0.87462843  0.35863618  1
  O  O514  1  0.04903712  0.87453180  0.85822976  1
  O  O515  1  0.40015748  0.37536541  0.12107456  1
  O  O516  1  0.39155477  0.37687910  0.60690416  1
  O  O517  1  0.40025250  0.87403371  0.11265111  1
  O  O518  1  0.33807578  0.47647261  0.89033133  1
  O  O519  1  0.33762322  0.97336790  0.38593943  1
  O  O520  1  0.83900532  0.47541840  0.86353075  1
  O  O521  1  0.33900192  0.97480248  0.88597168  1
  O  O522  1  0.95141772  0.12429978  0.14199637  1
  O  O523  1  0.95140680  0.12454761  0.64151996  1
  O  O524  1  0.95149310  0.62513024  0.14132437  1
  O  O525  1  0.95046454  0.62444665  0.64203335  1
  O  O526  1  0.45319565  0.12488917  0.10812422  1
  O  O527  1  0.45247810  0.11826446  0.60053940  1
  O  O528  1  0.45277163  0.62467710  0.10808345  1
  O  O529  1  0.45072209  0.62521124  0.60643447  1
  O  O530  1  0.54566544  0.37374789  0.39003932  1
  O  O531  1  0.04968698  0.37511157  0.35891091  1
  O  O532  1  0.04614016  0.37502856  0.85774472  1
  O  O533  1  0.04838595  0.87515913  0.35858135  1
  O  O534  1  0.04871283  0.87527105  0.85809619  1
  O  O535  1  0.40002637  0.37541601  0.12248115  1
  O  O536  1  0.39305450  0.37401491  0.60724589  1
  O  O537  1  0.40022300  0.87540532  0.11271022  1
  O  O538  1  0.39654173  0.87632046  0.61249608  1
  O  O539  1  0.15925781  0.02437576  0.63654737  1
  O  O540  1  0.15992985  0.52463656  0.13474315  1
  O  O541  1  0.15875212  0.52428139  0.63556906  1
  O  O542  1  0.66255477  0.22286483  0.11426755  1
  O  O543  1  0.66906771  0.22105323  0.60440575  1
  O  O544  1  0.66028320  0.72655892  0.11963705  1
  O  O545  1  0.66196270  0.72178921  0.61376231  1
  O  O546  1  0.33655955  0.27432124  0.38227644  1
  O  O547  1  0.32872600  0.27805450  0.89754813  1
  O  O548  1  0.33923365  0.77327095  0.38323623  1
  O  O549  1  0.60578698  0.11394749  0.88978163  1
  O  O550  1  0.60094446  0.62012830  0.38699440  1
  O  O551  1  0.60447845  0.63347563  0.88905351  1
  O  O552  1  0.65998989  0.02242088  0.12246766  1
  O  O553  1  0.66332828  0.02879425  0.61242207  1
  O  O554  1  0.66291639  0.52712756  0.11407984  1
  O  O555  1  0.65393352  0.51689833  0.61534833  1
  O  O556  1  0.15945824  0.22515886  0.13725994  1
  O  O557  1  0.15935001  0.22435861  0.63692937  1
  O  O558  1  0.16054163  0.72394157  0.13520971  1
  O  O559  1  0.33903987  0.77489328  0.38317753  1
  O  O560  1  0.33820836  0.77469928  0.88590256  1
  O  O561  1  0.33657888  0.47543500  0.37987453  1
  O  O562  1  0.33214509  0.47342427  0.89616383  1
  O  O563  1  0.33943169  0.97446945  0.38371280  1
  O  O564  1  0.15737367  0.72514430  0.63586943  1
  O  O565  1  0.09698011  0.12418735  0.36483568  1
  O  O566  1  0.09652962  0.12438754  0.86502385  1
  O  O567  1  0.09697696  0.62571189  0.36484739  1
  O  O568  1  0.09653793  0.62560013  0.86504777  1
  O  O569  1  0.84159190  0.27487449  0.36248161  1
  O  O570  1  0.83802848  0.27507606  0.86247542  1
  O  O571  1  0.83913012  0.77545195  0.36645868  1
  O  O572  1  0.83995177  0.77500273  0.86479722  1
  O  O573  1  0.84160603  0.47514374  0.36248608  1
  O  O574  1  0.16077592  0.52507133  0.13816143  1
  O  O575  1  0.16054418  0.52544311  0.63728601  1
  O  O576  1  0.66237577  0.22337010  0.11405576  1
  O  O577  1  0.66134331  0.22469920  0.61309672  1
  O  O578  1  0.66070130  0.72725782  0.12206340  1
  O  O579  1  0.66188650  0.72647721  0.60969893  1
  O  O580  1  0.33930245  0.27274165  0.37792548  1
  O  O581  1  0.33808417  0.27352919  0.89034397  1
  O  O582  1  0.33762830  0.77663522  0.38594546  1
  O  O583  1  0.84088427  0.77458592  0.86454349  1
  O  O584  1  0.83922160  0.47492901  0.36184186  1
  O  O585  1  0.83946191  0.47455574  0.86270883  1
  O  O586  1  0.83937888  0.97439321  0.36476657  1
  O  O587  1  0.83984317  0.97423393  0.86432042  1
  O  O588  1  0.90184126  0.37392363  0.13489439  1
  O  O589  1  0.90288141  0.37436344  0.63514387  1
  O  O590  1  0.90138664  0.87509339  0.13614616  1
  O  O591  1  0.90220770  0.87496517  0.63596626  1
  O  O592  1  0.04783138  0.37495496  0.35849295  1
  O  O593  1  0.54804784  0.87567071  0.89078565  1
  O  O594  1  0.59980834  0.12724180  0.38645777  1
  O  O595  1  0.90127908  0.87403644  0.63663247  1
  O  O596  1  0.04817648  0.37497649  0.35899949  1
  O  O597  1  0.04745907  0.37501597  0.85856450  1
  O  O598  1  0.04869435  0.87453233  0.35863842  1
  O  O599  1  0.04920760  0.87433145  0.85841529  1
  O  O600  1  0.40049346  0.37648063  0.11974448  1
  O  O601  1  0.39195606  0.37933740  0.60773030  1
  O  O602  1  0.40063264  0.87357669  0.11280294  1
  O  O603  1  0.54795012  0.37606895  0.90198208  1
  O  O604  1  0.54774088  0.87351074  0.39297202  1
  O  O605  1  0.15928120  0.22528742  0.13696659  1
  O  O606  1  0.15904328  0.22457308  0.63632883  1
  O  O607  1  0.16084881  0.72407938  0.13547296  1
  O  O608  1  0.33831768  0.97515952  0.88592037  1
  O  O609  1  0.95132197  0.12450404  0.14173855  1
  O  O610  1  0.95045094  0.12502246  0.64214549  1
  O  O611  1  0.95088674  0.62530919  0.14128648  1
  O  O612  1  0.94989478  0.62425353  0.64241812  1
  O  O613  1  0.45317216  0.12510978  0.10828908  1
  O  O614  1  0.45042950  0.11860945  0.60108939  1
  O  O615  1  0.45280195  0.62469789  0.10811793  1
  O  O616  1  0.44872252  0.62919943  0.60260781  1
  O  O617  1  0.54540801  0.37422475  0.38837161  1
  O  O618  1  0.45280944  0.12529201  0.10811089  1
  O  O619  1  0.44871258  0.12078630  0.60259980  1
  O  O620  1  0.45316943  0.62487802  0.10830498  1
  O  O621  1  0.45047199  0.63135301  0.60109577  1
  O  O622  1  0.54544194  0.37575747  0.38837761  1
  O  O623  1  0.54718294  0.37448175  0.90846269  1
  O  O624  1  0.33877184  0.77682177  0.38460396  1
  O  O625  1  0.33899421  0.77519506  0.88598298  1
  O  O626  1  0.33657728  0.47565336  0.38224279  1
  O  O627  1  0.83804140  0.47490806  0.86243893  1
  O  O628  1  0.83914379  0.97455127  0.36644084  1
  O  O629  1  0.83994706  0.97498535  0.86475362  1
  O  O630  1  0.90262609  0.37498248  0.13560876  1
  O  O631  1  0.90208834  0.37492510  0.63344606  1
  O  O632  1  0.90084360  0.87497262  0.13740215  1
  O  O633  1  0.89984668  0.87494777  0.63627970  1
  O  O634  1  0.04991724  0.37500964  0.35878562  1
  O  O635  1  0.04590542  0.37499902  0.85789334  1
  O  O636  1  0.04833543  0.87499673  0.35855398  1
  O  O637  1  0.33865593  0.77530164  0.88690141  1
  O  O638  1  0.33727888  0.47323900  0.38726262  1
  O  O639  1  0.32964472  0.47091391  0.89733572  1
  O  O640  1  0.33924022  0.97637286  0.38370586  1
  O  O641  1  0.33818257  0.97547895  0.88603081  1
  O  O642  1  0.95165694  0.12457696  0.14128395  1
  O  O643  1  0.09661746  0.62541657  0.86484019  1
  O  O644  1  0.84135081  0.27463355  0.36195985  1
  O  O645  1  0.83840812  0.27472798  0.86291404  1
  O  O646  1  0.83920084  0.77522999  0.36638447  1
  O  O647  1  0.84005169  0.77496304  0.86516680  1
  O  O648  1  0.84093703  0.47453944  0.36341622  1
  O  O649  1  0.83745193  0.47443384  0.86206564  1
  O  O650  1  0.83931835  0.97439457  0.36634120  1
  O  O651  1  0.84038105  0.97480249  0.86490713  1
  O  O652  1  0.90290154  0.37534649  0.13556110  1
  O  O653  1  0.15909673  0.22542212  0.63546073  1
  O  O654  1  0.16093136  0.72446042  0.13568844  1
  O  O655  1  0.15956283  0.72513566  0.63682756  1
  O  O656  1  0.16090171  0.02589460  0.13432862  1
  O  O657  1  0.15917091  0.02604202  0.63545884  1
  O  O658  1  0.15951401  0.52515973  0.13736210  1
  O  O659  1  0.16000847  0.52577748  0.63715846  1
  O  O660  1  0.66261082  0.22334100  0.11381294  1
  O  O661  1  0.65747918  0.22858944  0.61530900  1
  O  O662  1  0.66068063  0.72738875  0.12239583  1
  O  O663  1  0.66176408  0.72663149  0.61158395  1
  O  O664  1  0.33752474  0.27481286  0.37860456  1
  O  O665  1  0.34018098  0.27508497  0.88869725  1
  O  O666  1  0.09750251  0.12388997  0.36473417  1
  O  O667  1  0.09717521  0.12397801  0.86499382  1
  O  O668  1  0.09737627  0.62513189  0.36378162  1
  O  O669  1  0.09737782  0.62495678  0.86465332  1
  O  O670  1  0.84057914  0.27440602  0.36215797  1
  O  O671  1  0.66192211  0.02352953  0.60965562  1
  O  O672  1  0.66237189  0.52663075  0.11405062  1
  O  O673  1  0.66133573  0.52529775  0.61309471  1
  O  O674  1  0.16078271  0.22492812  0.13816923  1
  O  O675  1  0.16053754  0.22455810  0.63728089  1
  O  O676  1  0.16062716  0.72438605  0.13524754  1
  O  O677  1  0.16016008  0.72423227  0.63566900  1
  O  O678  1  0.09773383  0.12367173  0.36481083  1
  O  O679  1  0.09715307  0.12393812  0.86494190  1
  O  O680  1  0.09825823  0.62477964  0.36325868  1
  O  O681  1  0.09817262  0.62438255  0.86408367  1
  O  O682  1  0.83971411  0.27452992  0.36225233  1
  O  O683  1  0.83936958  0.27476190  0.86351957  1
  O  O684  1  0.83955710  0.77502681  0.36599070  1
  O  O685  1  0.84016805  0.77512512  0.86541684  1
  O  O686  1  0.04854971  0.37484239  0.85864074  1
  O  O687  1  0.04834903  0.87543313  0.35871209  1
  O  O688  1  0.04885255  0.87539230  0.85869119  1
  O  O689  1  0.40093043  0.37263360  0.11990992  1
  O  O690  1  0.54747116  0.87565609  0.89124655  1
  O  O691  1  0.59909753  0.12335824  0.38631969  1
  O  O692  1  0.83874257  0.27601245  0.36538972  1
  O  O693  1  0.83902006  0.27530421  0.86322442  1
  O  O694  1  0.83999226  0.77562701  0.36589927  1
  O  O695  1  0.84119409  0.77506462  0.86497525  1
  O  O696  1  0.83973234  0.47546764  0.36225504  1
  O  O697  1  0.83936927  0.47522579  0.86350329  1
  O  O698  1  0.83959924  0.97500190  0.36601296  1
  O  O699  1  0.84016937  0.97484367  0.86533868  1
  O  O700  1  0.90192069  0.37404064  0.13606018  1
  O  O701  1  0.90192822  0.37525638  0.63518550  1
  O  O702  1  0.65973365  0.72736322  0.12201146  1
  O  O703  1  0.66363183  0.71799231  0.61323027  1
  O  O704  1  0.33636528  0.27443364  0.37988744  1
  O  O705  1  0.33143653  0.27678913  0.89627106  1
  O  O706  1  0.33943801  0.77517454  0.38366953  1
  O  O707  1  0.33824775  0.77478098  0.88600477  1
  O  O708  1  0.33634892  0.47555434  0.37988538  1
  O  O709  1  0.33143811  0.47320193  0.89627538  1
  O  O710  1  0.33942298  0.97481223  0.38366294  1
  O  O711  1  0.33825028  0.97521547  0.88599006  1
  O  O712  1  0.33886831  0.77439289  0.88545331  1
  O  O713  1  0.33693016  0.47526249  0.37904157  1
  O  O714  1  0.33763026  0.47422033  0.89151823  1
  O  O715  1  0.39662098  0.87219124  0.61258118  1
  O  O716  1  0.16093000  0.02575142  0.13542809  1
  O  O717  1  0.15873812  0.02436180  0.63636989  1
  O  O718  1  0.15971099  0.52467160  0.13572570  1
  O  O719  1  0.15916626  0.52491615  0.63618570  1
  O  O720  1  0.66292710  0.22254006  0.11431929  1
  O  O721  1  0.66529888  0.22431811  0.60660877  1
  O  O722  1  0.83875225  0.47398656  0.36538448  1
  O  O723  1  0.83901856  0.47468264  0.86320463  1
  O  O724  1  0.84000210  0.97438883  0.36586638  1
  O  O725  1  0.84119596  0.97490261  0.86489481  1
  O  O726  1  0.90191787  0.37592688  0.13605977  1
  O  O727  1  0.66272235  0.22325056  0.11272535  1
  O  O728  1  0.90184280  0.37606459  0.13489209  1
  O  O729  1  0.90288520  0.37562533  0.63513874  1
  O  O730  1  0.66075777  0.72637730  0.11628339  1
  O  O731  1  0.66182224  0.72547570  0.61396617  1
  O  O732  1  0.95109255  0.12489025  0.14137837  1
  O  O733  1  0.95020431  0.12584532  0.64241862  1
  O  O734  1  0.95128881  0.62564134  0.14191316  1
  O  O735  1  0.95095836  0.62534428  0.64194965  1
  O  O736  1  0.45281309  0.12520712  0.10836887  1
  O  O737  1  0.44955193  0.12323268  0.60412188  1
  O  O738  1  0.45332553  0.62489108  0.10810791  1
  O  O739  1  0.45152714  0.63156418  0.60069918  1
  O  O740  1  0.54531603  0.37620327  0.38948648  1
  O  O741  1  0.54788367  0.37522824  0.90514080  1
  O  O742  1  0.60270559  0.11822207  0.88808378  1
  O  O743  1  0.59978814  0.62784480  0.38175994  1
  O  O744  1  0.39654387  0.87368368  0.61249610  1
  O  O745  1  0.16085077  0.02590773  0.13542793  1
  O  O746  1  0.15813607  0.02458813  0.63619048  1
  O  O747  1  0.15927068  0.52470008  0.13695239  1
  O  O748  1  0.15906060  0.52543607  0.63633579  1
  O  O749  1  0.66303368  0.22250555  0.11394645  1
  O  O750  1  0.65975742  0.22905317  0.61052591  1
  O  O751  1  0.65972649  0.72711649  0.12141679  1
  O  O752  1  0.66337249  0.71828235  0.61350225  1
  O  O753  1  0.33606653  0.27433930  0.38074209  1
  O  O754  1  0.54804155  0.87431302  0.89077926  1
  O  O755  1  0.59975406  0.12217808  0.38172741  1
  O  O756  1  0.60658281  0.11385634  0.89025405  1
  O  O757  1  0.59982234  0.62276865  0.38646265  1
  O  O758  1  0.60269790  0.63177571  0.88810064  1
  O  O759  1  0.66068424  0.02260508  0.12237934  1
  O  O760  1  0.66191924  0.02331939  0.61143008  1
  O  O761  1  0.66260894  0.52665108  0.11382511  1
  O  O762  1  0.90180614  0.37431902  0.63467566  1
  O  O763  1  0.90111886  0.87437247  0.13725979  1
  O  O764  1  0.15812517  0.72541632  0.63620251  1
  O  O765  1  0.09738264  0.12478311  0.36378078  1
  O  O766  1  0.09737514  0.12502297  0.86465169  1
  O  O767  1  0.09750075  0.62603518  0.36474797  1
  O  O768  1  0.09717400  0.62599887  0.86499630  1
  O  O769  1  0.83958085  0.27592628  0.36476059  1
  O  O770  1  0.83816982  0.27549381  0.86287163  1
  O  O771  1  0.83962233  0.77574218  0.36610783  1
  O  O772  1  0.84080487  0.77518886  0.86497904  1
  O  O773  1  0.84059399  0.47559591  0.36215502  1
  O  O774  1  0.39399669  0.36380995  0.60980744  1
  O  O775  1  0.40089747  0.87665743  0.11368022  1
  O  O776  1  0.39783891  0.87939023  0.61306750  1
  O  O777  1  0.16063403  0.02561125  0.13523496  1
  O  O778  1  0.16017883  0.02577846  0.63566916  1
  O  O779  1  0.16094376  0.72447188  0.13551450  1
  O  O780  1  0.15923060  0.72562709  0.63654559  1
  O  O781  1  0.09861588  0.12487285  0.36386408  1
  O  O782  1  0.09777257  0.12499800  0.86404679  1
  O  O783  1  0.09815967  0.62605002  0.36511543  1
  O  O784  1  0.09711317  0.62562767  0.86487089  1
  O  O785  1  0.83906271  0.27553688  0.36433070  1
  O  O786  1  0.84043119  0.27485279  0.86317929  1
  O  O787  1  0.84042065  0.77474848  0.36472647  1
  O  O788  1  0.60216955  0.12061602  0.88692903  1
  O  O789  1  0.59907026  0.62736308  0.38013000  1
  O  O790  1  0.60600567  0.63616954  0.89021285  1
  O  O791  1  0.66075297  0.02362539  0.11627318  1
  O  O792  1  0.66181756  0.02451505  0.61395826  1
  O  O793  1  0.66271737  0.52674604  0.11274387  1
  O  O794  1  0.67033008  0.52905958  0.60263664  1
  O  O795  1  0.15957306  0.22525639  0.13529916  1
  O  O796  1  0.90133028  0.87565381  0.13710689  1
  O  O797  1  0.90124832  0.87574454  0.63662791  1
  O  O798  1  0.04817884  0.37500048  0.35900134  1
  O  O799  1  0.04746069  0.37498361  0.85856579  1
  O  O800  1  0.04871678  0.87549174  0.35862717  1
  O  O801  1  0.04920301  0.87565823  0.85840729  1
  O  O802  1  0.40048844  0.37349669  0.11974680  1
  O  O803  1  0.39195218  0.37064329  0.60772746  1
  O  O804  1  0.40063811  0.87644359  0.11280119  1
  O  O805  1  0.39687523  0.87887626  0.61263564  1
  O  O806  1  0.66309617  0.22260172  0.11380670  1
  O  O807  1  0.65421240  0.23364551  0.61484921  1
  O  O808  1  0.84044097  0.47513736  0.86317089  1
  O  O809  1  0.84043229  0.97525537  0.36471344  1
  O  O810  1  0.84090536  0.97542175  0.86452099  1
  O  O811  1  0.67035450  0.22091200  0.60265965  1
  O  O812  1  0.04885249  0.87461025  0.85869124  1
  O  O813  1  0.40092533  0.37736776  0.11989802  1
  O  O814  1  0.39399280  0.38617635  0.60980035  1
  O  O815  1  0.40089912  0.87336076  0.11368278  1
  O  O816  1  0.32962019  0.27755255  0.89719877  1
  O  O817  1  0.33897542  0.77392585  0.38328754  1
  O  O818  1  0.95117988  0.12462091  0.14169772  1
  O  O819  1  0.94995113  0.12549518  0.64224903  1
  O  O820  1  0.95117745  0.62537929  0.14170861  1
  O  O821  1  0.94997473  0.62451406  0.64226547  1
  O  O822  1  0.45296958  0.12521957  0.10827546  1
  O  O823  1  0.44916499  0.12043669  0.60226207  1
  O  O824  1  0.45296885  0.62477504  0.10829174  1
  O  O825  1  0.44918310  0.62951722  0.60227642  1
  O  O826  1  0.54549481  0.37499990  0.38772552  1
  O  O827  1  0.54728378  0.37499563  0.90862544  1
  O  O828  1  0.32872893  0.47194332  0.89755973  1
  O  O829  1  0.33921916  0.97671818  0.38323601  1
  O  O830  1  0.33906084  0.97568374  0.88531395  1
  O  O831  1  0.54842514  0.87499036  0.39416877  1
  O  O832  1  0.54744378  0.87499296  0.89045061  1
  O  O833  1  0.60114529  0.12968048  0.38687968  1
  O  O834  1  0.60488705  0.11482793  0.88938575  1
  O  O835  1  0.60115315  0.62035934  0.38688431  1
  O  O836  1  0.60488301  0.63514322  0.88939813  1
  O  O837  1  0.65973400  0.02262302  0.12200997  1
  O  O838  1  0.66362567  0.03201910  0.61320466  1
  O  O839  1  0.66309424  0.52737934  0.11381848  1
  O  O840  1  0.65426312  0.51634460  0.61486171  1
  O  O841  1  0.90070868  0.87563739  0.63658847  1
  O  O842  1  0.04889737  0.37506212  0.35922932  1
  O  O843  1  0.04683406  0.37503939  0.85815861  1
  O  O844  1  0.04855625  0.87537490  0.35863491  1
  O  O845  1  0.04903527  0.87547090  0.85823048  1
  O  O846  1  0.40016125  0.37462551  0.12107477  1
  O  O847  1  0.39155951  0.37312557  0.60691024  1
  O  O848  1  0.40025644  0.87599537  0.11265179  1
  O  O849  1  0.39661984  0.87781027  0.61257940  1
  O  O850  1  0.44955185  0.62676898  0.60411904  1
  O  O851  1  0.54529703  0.37378239  0.38947902  1
  O  O852  1  0.54788042  0.37476552  0.90514002  1
  O  O853  1  0.54795024  0.87351595  0.39352032  1
  O  O854  1  0.54775262  0.87445905  0.89056243  1
  O  O855  1  0.59978759  0.12376914  0.38261815  1
  O  O856  1  0.60653449  0.11352857  0.89024398  1
  O  O857  1  0.60026780  0.62147383  0.38636228  1
  O  O858  1  0.60388893  0.63372356  0.88902442  1
  O  O859  1  0.66037191  0.02230420  0.12269022  1
  O  O860  1  0.95150321  0.12486417  0.14131864  1
  O  O861  1  0.15937642  0.22517649  0.13718322  1
  O  O862  1  0.15888996  0.22446419  0.63669024  1
  O  O863  1  0.16078286  0.72403140  0.13558082  1
  O  O864  1  0.15757509  0.72524496  0.63606356  1
  O  O865  1  0.09652368  0.12421463  0.36436190  1
  O  O866  1  0.09661324  0.12456093  0.86482722  1
  O  O867  1  0.09722252  0.62590750  0.36480711  1
  O  O868  1  0.09684632  0.62573972  0.86500870  1
  O  O869  1  0.84092878  0.27546307  0.36343353  1
  O  O870  1  0.83745486  0.27556213  0.86208475  1
  O  O871  1  0.66009324  0.72685542  0.12141253  1
  O  O872  1  0.66235877  0.72012886  0.61349601  1
  O  O873  1  0.33614821  0.27408869  0.38050914  1
  O  O874  1  0.83899871  0.27457267  0.86354343  1
  O  O875  1  0.83949111  0.77497317  0.36624243  1
  O  O876  1  0.84026390  0.77500477  0.86539883  1
  O  O877  1  0.83959266  0.47407692  0.36474867  1
  O  O878  1  0.83816762  0.47449682  0.86285215  1
  O  O879  1  0.83963960  0.97426882  0.36610348  1
  O  O880  1  0.84080035  0.97479586  0.86494020  1
  O  O881  1  0.16059221  0.02603262  0.13475036  1
  O  O882  1  0.15813096  0.02542020  0.63573226  1
  O  O883  1  0.15937763  0.52499433  0.13718002  1
  O  O884  1  0.15969246  0.52583201  0.63704783  1
  O  O885  1  0.66258909  0.22316289  0.11385818  1
  O  O886  1  0.65601838  0.23058470  0.61506311  1
  O  O887  1  0.66036992  0.72768665  0.12269569  1
  O  O888  1  0.66244338  0.72452614  0.61171565  1
  O  O889  1  0.33693808  0.27471771  0.37905265  1
  O  O890  1  0.33763356  0.27577505  0.89151388  1
  O  O891  1  0.45251999  0.62565558  0.60875536  1
  O  O892  1  0.54690703  0.37504046  0.39138420  1
  O  O893  1  0.54684209  0.38099825  0.90003820  1
  O  O894  1  0.54729848  0.87469898  0.39218447  1
  O  O895  1  0.54746971  0.87433712  0.89125019  1
  O  O896  1  0.59907553  0.12263449  0.38008694  1
  O  O897  1  0.60599230  0.11380806  0.89019812  1
  O  O898  1  0.59910318  0.62665416  0.38632690  1
  O  O899  1  0.60215968  0.62938800  0.88694182  1
  O  O900  1  0.66069963  0.02274133  0.12205506  1
  O  O901  1  0.54718244  0.37551398  0.90845996  1
  O  O902  1  0.54825525  0.87414040  0.39395134  1
  O  O903  1  0.54743461  0.87454293  0.89038708  1
  O  O904  1  0.60074192  0.12674258  0.38462568  1
  O  O905  1  0.45237644  0.63165855  0.60053580  1
  O  O906  1  0.54567612  0.37622297  0.39003907  1
  O  O907  1  0.54795006  0.37392443  0.90198012  1
  O  O908  1  0.54774502  0.87648496  0.39298741  1
  O  O909  1  0.54825532  0.87585657  0.39395056  1
  O  O910  1  0.54743472  0.87545823  0.89038764  1
  O  O911  1  0.60093177  0.12990126  0.38698519  1
  O  O912  1  0.60448980  0.11655464  0.88904276  1
  O  O913  1  0.60077131  0.62328711  0.38465061  1
  O  O914  1  0.60578212  0.63602433  0.88979497  1
  O  O915  1  0.65972388  0.02287910  0.12139545  1
  O  O916  1  0.66336806  0.03171328  0.61346920  1
  O  O917  1  0.66301625  0.52746903  0.11396379  1
  O  O918  1  0.65987445  0.52089450  0.61044220  1
  O  O919  1  0.33944758  0.77552412  0.38371356  1
  O  O920  1  0.33831997  0.77483986  0.88592203  1
  O  O921  1  0.33617994  0.47558880  0.38064531  1
  O  O922  1  0.33099438  0.47280329  0.89648421  1
  O  O923  1  0.33902874  0.97509993  0.38317448  1
  O  O924  1  0.33822389  0.97530258  0.88589735  1
  O  O925  1  0.95089114  0.12469168  0.14127910  1
  O  O926  1  0.94988976  0.12574692  0.64240621  1
  O  O927  1  0.95132396  0.62549396  0.14173888  1
  O  O928  1  0.95045194  0.62497703  0.64215699  1
  O  O929  1  0.66243964  0.02547087  0.61169110  1
  O  O930  1  0.66257807  0.52682304  0.11386414  1
  O  O931  1  0.65601715  0.51941606  0.61505889  1
  O  O932  1  0.15937932  0.22499631  0.13719122  1
  O  O933  1  0.15968031  0.22417204  0.63704824  1
  O  O934  1  0.16058361  0.72395496  0.13479425  1
  O  O935  1  0.15811929  0.72458479  0.63574021  1
  O  O936  1  0.09722715  0.12401642  0.36479713  1
  O  O937  1  0.09684276  0.12423088  0.86499922  1
  O  O938  1  0.09651704  0.62570190  0.36437319  1
  O  O939  1  0.66292020  0.52744627  0.11433006  1
  O  O940  1  0.66530949  0.52568010  0.60660704  1
  O  O941  1  0.15972740  0.22531419  0.13574962  1
  O  O942  1  0.15915545  0.22508757  0.63618128  1
  O  O943  1  0.16092512  0.72423865  0.13547341  1
  O  O944  1  0.15872511  0.72564568  0.63637937  1
  O  O945  1  0.09824006  0.12501763  0.36325881  1
  O  O946  1  0.09816875  0.12560645  0.86409691  1
  O  O947  1  0.09771336  0.62624194  0.36482219  1
  O  O948  1  0.09715536  0.62604110  0.86494612  1
  O  O949  1  0.66905821  0.52889476  0.60441351  1
  O  O950  1  0.15996294  0.22534531  0.13483375  1
  O  O951  1  0.15875248  0.22573587  0.63556836  1
  O  O952  1  0.15893944  0.52555763  0.63671717  1
  O  O953  1  0.33728472  0.27674732  0.38725020  1
  O  O954  1  0.32965468  0.27908320  0.89734300  1
  O  O955  1  0.33924018  0.77362895  0.38372227  1
  O  O956  1  0.33817868  0.77452053  0.88603932  1
  O  O957  1  0.33929951  0.47725034  0.37793558  1
  O  O958  1  0.33905350  0.77431205  0.88533028  1
  O  O959  1  0.33753046  0.47516222  0.37860311  1
  O  O960  1  0.34018366  0.47491123  0.88869506  1
  O  O961  1  0.83982973  0.77576931  0.86433571  1
  O  O962  1  0.83906975  0.47446176  0.36433154  1
  O  O963  1  0.33865645  0.97469790  0.88690266  1
  O  O964  1  0.95216588  0.12495863  0.14150262  1
  O  O965  1  0.95146263  0.12484210  0.64135379  1
  O  O966  1  0.95166089  0.62542696  0.14128457  1
  O  O967  1  0.95115236  0.62539219  0.64131037  1
  O  O968  1  0.45309110  0.12495478  0.10860964  1
  O  O969  1  0.45316087  0.11899402  0.59996771  1
  O  O970  1  0.45269173  0.62529898  0.10781855  1
  O  O971  1  0.39688404  0.87112533  0.61263159  1
  O  O972  1  0.16095377  0.02551602  0.13547508  1
  O  O973  1  0.95049488  0.12557255  0.64200624  1
  O  O974  1  0.95140596  0.62569924  0.14199767  1
  O  O975  1  0.95139448  0.62543982  0.64153715  1
  O  O976  1  0.45277686  0.12532667  0.10806532  1
  O  O977  1  0.45072888  0.12479914  0.60645503  1
  O  O978  1  0.45319159  0.62510283  0.10814932  1
  O  O979  1  0.54795187  0.87648359  0.39352043  1
  O  O980  1  0.54774910  0.87552083  0.89056033  1
  O  O981  1  0.60026093  0.12854615  0.38635053  1
  O  O982  1  0.60389185  0.11627607  0.88901299  1
  O  O983  1  0.59980957  0.62625466  0.38263989  1
  O  O984  1  0.60653421  0.63646127  0.89025946  1
  O  O985  1  0.66009478  0.02313357  0.12140372  1
  O  O986  1  0.66235789  0.02987030  0.61347592  1
  O  O987  1  0.60656990  0.63611899  0.89027548  1
  O  O988  1  0.66028574  0.02343247  0.11962072  1
  O  O989  1  0.66194317  0.02819426  0.61375125  1
  O  O990  1  0.66254472  0.52711947  0.11430295  1
  O  O991  1  0.40015194  0.37498628  0.12213867  1
  O  O992  1  0.39207012  0.37499965  0.60678241  1
  O  O993  1  0.40029563  0.87501574  0.11278818  1
  O  O994  1  0.39673539  0.87499459  0.61265940  1
  O  O995  1  0.16078170  0.02595494  0.13553238  1
  O  O996  1  0.15756649  0.02476853  0.63604792  1
  O  O997  1  0.15937839  0.52481013  0.13715979  1
  O  O998  1  0.04842998  0.87500375  0.85788928  1
