# generated using pymatgen
data_Li67Fe72(PO4)72
_symmetry_space_group_name_H-M   'P 1'
_cell_length_a   10.33851817
_cell_length_b   12.50299017
_cell_length_c   9.47723191
_cell_angle_alpha   89.99999803
_cell_angle_beta   89.99984358
_cell_angle_gamma   90.00000385
_symmetry_Int_Tables_number   1
_chemical_formula_structural   Li67Fe72(PO4)72
_chemical_formula_sum   'Li134 Fe144 P144 O576'
_cell_volume   1225.04965747
_cell_formula_units_Z   2
loop_
 _symmetry_equiv_pos_site_id
 _symmetry_equiv_pos_as_xyz
  1  'x, y, z'
loop_
 _atom_site_type_symbol
 _atom_site_label
 _atom_site_symmetry_multiplicity
 _atom_site_fract_x
 _atom_site_fract_y
 _atom_site_fract_z
 _atom_site_occupancy
  Li  Li0  1  -0.00054908  0.49911978  0.50074836  1
  Li  Li1  1  0.50002107  0.24997148  0.75003743  1
  Li  Li2  1  0.50000459  0.74998765  0.25001504  1
  Li  Li3  1  0.00061551  0.00096682  0.49915701  1
  Li  Li4  1  -0.00057229  0.49908566  0.00077334  1
  Li  Li5  1  0.00074706  0.00216649  -0.00176299  1
  Li  Li6  1  -0.00070473  0.49788689  0.50169735  1
  Li  Li7  1  0.50001132  0.24998069  0.25001750  1
  Li  Li8  1  0.50000713  0.74998397  0.25001995  1
  Li  Li9  1  0.50002066  0.74997515  0.75003306  1
  Li  Li10  1  0.50286114  0.00410836  0.25932558  1
  Li  Li11  1  0.50540032  0.01684641  0.76032149  1
  Li  Li12  1  0.49710222  0.49585784  0.24061292  1
  Li  Li13  1  0.49458787  0.48312955  0.73965325  1
  Li  Li14  1  0.00149609  0.24940969  -0.00143942  1
  Li  Li15  1  -0.00151587  0.25063139  0.50147978  1
  Li  Li16  1  0.00090514  0.74972854  -0.00040388  1
  Li  Li17  1  -0.00098382  0.75034859  0.50051373  1
  Li  Li18  1  0.00293562  0.00199302  -0.00213741  1
  Li  Li19  1  0.50540452  0.01685818  0.26032858  1
  Li  Li20  1  0.50284769  0.00409391  0.75931301  1
  Li  Li21  1  0.49458411  0.48313096  0.23966551  1
  Li  Li22  1  0.49709939  0.49584614  0.74060726  1
  Li  Li23  1  -0.00150589  0.25061696  0.00146351  1
  Li  Li24  1  -0.00112763  0.00080055  0.50075799  1
  Li  Li25  1  -0.00339174  0.49778214  0.00304122  1
  Li  Li26  1  0.00052361  0.49823340  0.50056727  1
  Li  Li27  1  0.51172169  0.23364613  0.30446772  1
  Li  Li28  1  0.50049415  0.74932297  0.25069632  1
  Li  Li29  1  0.00148451  0.24942593  0.49857606  1
  Li  Li30  1  -0.00095510  0.75031601  0.00049090  1
  Li  Li31  1  0.00075544  0.74985088  0.49972641  1
  Li  Li32  1  0.50496400  0.01064435  0.25603906  1
  Li  Li33  1  0.50593395  0.01180533  0.76864598  1
  Li  Li34  1  0.49385945  0.48707459  0.22697624  1
  Li  Li35  1  0.49442065  0.49493716  0.74254441  1
  Li  Li36  1  -0.00138776  0.24991380  -0.00023444  1
  Li  Li37  1  0.00094764  0.24950459  0.49870370  1
  Li  Li38  1  0.50030399  0.74979382  0.75068613  1
  Li  Li39  1  0.50391023  0.00142697  0.25727089  1
  Li  Li40  1  0.50611126  0.01578788  0.76810412  1
  Li  Li41  1  0.49294717  0.49021211  0.23418814  1
  Li  Li42  1  0.49479330  0.48661244  0.74231255  1
  Li  Li43  1  0.00161750  0.24964135  -0.00028810  1
  Li  Li44  1  -0.00106175  0.25065703  0.50166554  1
  Li  Li45  1  0.00050748  0.74958408  -0.00051644  1
  Li  Li46  1  -0.00060154  0.75008982  0.50026206  1
  Li  Li47  1  0.00071584  0.24976366  0.49917748  1
  Li  Li48  1  -0.00014194  0.75015191  0.00010513  1
  Li  Li49  1  0.00003357  0.75014342  0.50023722  1
  Li  Li50  1  0.00304865  0.00248851  -0.00331593  1
  Li  Li51  1  -0.00183847  0.00146523  0.50034826  1
  Li  Li52  1  -0.00300220  0.49803457  0.00198742  1
  Li  Li53  1  0.00288105  0.49953258  0.49816673  1
  Li  Li54  1  0.49314029  0.26934215  0.63267796  1
  Li  Li55  1  0.49967760  0.75040610  0.24901435  1
  Li  Li56  1  0.49991731  0.74994233  0.74994852  1
  Li  Li57  1  -0.00072179  0.49786782  0.00172102  1
  Li  Li58  1  -0.00265656  0.49800550  0.00173061  1
  Li  Li59  1  0.00387960  0.49945178  0.49796822  1
  Li  Li60  1  0.49288566  0.26761403  0.56678039  1
  Li  Li61  1  0.49956028  0.75050466  0.24886689  1
  Li  Li62  1  0.50030798  0.74929432  0.75086111  1
  Li  Li63  1  0.50542455  0.01140339  0.25786647  1
  Li  Li64  1  0.50468757  0.01312051  0.77139063  1
  Li  Li65  1  0.49497354  0.48808233  0.22520558  1
  Li  Li66  1  0.49392406  0.48858099  0.73978268  1
  Li  Li67  1  -0.00070281  0.24971649  -0.00023221  1
  Li  Li68  1  0.49971090  0.75016977  0.24935993  1
  Li  Li69  1  0.49953598  0.75063068  0.74936516  1
  Li  Li70  1  0.49969101  0.75057217  0.24924987  1
  Li  Li71  1  0.50046513  0.74944388  0.75120215  1
  Li  Li72  1  0.50606109  0.01139088  0.26018585  1
  Li  Li73  1  0.50502071  0.01190046  0.77477367  1
  Li  Li74  1  0.49532053  0.48686520  0.22858248  1
  Li  Li75  1  0.49456975  0.48856509  0.74210422  1
  Li  Li76  1  0.00066884  0.25033252  0.00027967  1
  Li  Li77  1  -0.00078382  0.25032398  0.50091057  1
  Li  Li78  1  0.00003935  0.74994697  0.00003167  1
  Li  Li79  1  -0.00020760  0.75004299  0.50001407  1
  Li  Li80  1  0.50520707  0.01337437  0.25767125  1
  Li  Li81  1  0.50705693  0.00976830  0.76578643  1
  Li  Li82  1  0.49389348  0.48418681  0.23188086  1
  Li  Li83  1  0.49607591  0.49853723  0.74268658  1
  Li  Li84  1  -0.00164104  0.25039531  0.00032919  1
  Li  Li85  1  0.00099304  0.24943247  0.49843137  1
  Li  Li86  1  -0.00058052  0.75049140  0.00065204  1
  Li  Li87  1  0.00040024  0.75011717  0.50002302  1
  Li  Li88  1  0.00059687  0.00094784  -0.00081738  1
  Li  Li89  1  0.00077007  0.00220078  0.49820877  1
  Li  Li90  1  0.49454364  0.48602064  0.73942677  1
  Li  Li91  1  -0.00001421  0.25002227  0.00002052  1
  Li  Li92  1  -0.00003328  0.25004186  0.50004336  1
  Li  Li93  1  -0.00002637  0.75002989  0.00005004  1
  Li  Li94  1  -0.00008032  0.75008806  0.50011983  1
  Li  Li95  1  0.00269969  0.00244063  -0.00259786  1
  Li  Li96  1  -0.00325460  0.00089211  0.50129501  1
  Li  Li97  1  -0.00034410  0.75032840  0.00036161  1
  Li  Li98  1  0.00023769  0.75019537  0.50022291  1
  Li  Li99  1  0.00342735  0.00226703  -0.00311346  1
  Li  Li100  1  -0.00041450  0.00190526  0.49926800  1
  Li  Li101  1  -0.00287302  0.49806179  0.00206224  1
  Li  Li102  1  0.00124041  0.49934496  0.49904003  1
  Li  Li103  1  0.48828498  0.26633189  0.69559886  1
  Li  Li104  1  0.50010532  0.75000841  0.25011246  1
  Li  Li105  1  0.50034359  0.74954765  0.75104365  1
  Li  Li106  1  0.50556202  0.00501063  0.25740524  1
  Li  Li107  1  0.50614507  0.01289669  0.77300192  1
  Li  Li108  1  0.49407458  0.48818265  0.23133460  1
  Li  Li109  1  0.00286493  0.00207173  -0.00185373  1
  Li  Li110  1  -0.00378542  0.00067644  0.50187543  1
  Li  Li111  1  -0.00263127  0.49761336  0.00252589  1
  Li  Li112  1  0.00338294  0.49926040  0.49852460  1
  Li  Li113  1  0.50714129  0.23239020  0.43327984  1
  Li  Li114  1  0.00249000  0.00225702  -0.00195138  1
  Li  Li115  1  -0.00405285  0.00064165  0.50172492  1
  Li  Li116  1  -0.00235447  0.49780176  0.00186252  1
  Li  Li117  1  0.00416935  0.49949189  0.49811991  1
  Li  Li118  1  0.50000695  0.24999761  0.49998133  1
  Li  Li119  1  0.49959312  0.75070253  0.24880637  1
  Li  Li120  1  0.50043450  0.74924973  0.75125650  1
  Li  Li121  1  0.50544724  0.01394380  0.26054340  1
  Li  Li122  1  0.50375364  0.01267389  0.77354308  1
  Li  Li123  1  0.49624937  0.48730872  0.22643871  1
  Li  Li124  1  0.00324786  0.00205453  -0.00207562  1
  Li  Li125  1  0.49503177  0.48933333  0.74394168  1
  Li  Li126  1  0.00135895  0.25013110  0.00027586  1
  Li  Li127  1  -0.00101462  0.25058111  0.50138584  1
  Li  Li128  1  0.00021545  0.74978999  -0.00019805  1
  Li  Li129  1  -0.00041953  0.74999382  0.50003063  1
  Li  Li130  1  -0.00277597  0.00060314  0.50166847  1
  Li  Li131  1  -0.00301086  0.49756249  0.00324558  1
  Li  Li132  1  0.00195244  0.49867727  0.49949022  1
  Li  Li133  1  0.50683595  0.23062458  0.36740892  1
  Fe  Fe134  1  0.28359746  0.62320757  0.48343844  1
  Fe  Fe135  1  0.28381375  0.62317848  0.98133209  1
  Fe  Fe136  1  0.21793307  0.37515232  0.23303268  1
  Fe  Fe137  1  0.22159263  0.37461871  0.73731211  1
  Fe  Fe138  1  0.21792465  0.87453308  0.23274118  1
  Fe  Fe139  1  0.77840130  0.12538668  0.76269217  1
  Fe  Fe140  1  0.78207573  0.62546560  0.26726073  1
  Fe  Fe141  1  0.78191080  0.62516909  0.76685622  1
  Fe  Fe142  1  0.78206395  0.12485787  0.26696182  1
  Fe  Fe143  1  0.71621641  0.37467330  0.01558463  1
  Fe  Fe144  1  0.28350754  0.62192111  0.98158281  1
  Fe  Fe145  1  0.21758103  0.37536929  0.23210738  1
  Fe  Fe146  1  0.28024852  0.63044975  0.48456655  1
  Fe  Fe147  1  0.28355563  0.62075900  0.98226005  1
  Fe  Fe148  1  0.21684995  0.37543140  0.23021380  1
  Fe  Fe149  1  0.21917807  0.37531955  0.73931110  1
  Fe  Fe150  1  0.21796826  0.87520361  0.23297232  1
  Fe  Fe151  1  0.21870003  0.87471224  0.73261936  1
  Fe  Fe152  1  0.78069656  0.12496199  0.26448549  1
  Fe  Fe153  1  0.78436420  0.12504562  0.77538464  1
  Fe  Fe154  1  0.71864382  0.87028262  0.51829875  1
  Fe  Fe155  1  0.28246821  0.12439496  0.48614616  1
  Fe  Fe156  1  0.28589681  0.12817212  0.98367217  1
  Fe  Fe157  1  0.21960694  0.37497190  0.73900646  1
  Fe  Fe158  1  0.21796258  0.87481110  0.23273663  1
  Fe  Fe159  1  0.21832011  0.87494454  0.73295892  1
  Fe  Fe160  1  0.78256814  0.12380011  0.26452044  1
  Fe  Fe161  1  0.78320622  0.12500747  0.77357456  1
  Fe  Fe162  1  0.78153110  0.62533844  0.26753013  1
  Fe  Fe163  1  0.78151892  0.62549761  0.76763191  1
  Fe  Fe164  1  0.28491288  0.12562221  0.47956412  1
  Fe  Fe165  1  0.28583433  0.12706034  0.98457259  1
  Fe  Fe166  1  0.28135202  0.62970881  0.48170189  1
  Fe  Fe167  1  0.28347874  0.62058743  0.98213846  1
  Fe  Fe168  1  0.21679002  0.37499268  0.22643590  1
  Fe  Fe169  1  0.21742163  0.37620789  0.73545518  1
  Fe  Fe170  1  0.21848092  0.87449700  0.23237979  1
  Fe  Fe171  1  0.21847408  0.87466885  0.73247710  1
  Fe  Fe172  1  0.78039235  0.12503838  0.26098205  1
  Fe  Fe173  1  0.78161545  0.62560963  0.26746414  1
  Fe  Fe174  1  0.78179087  0.62522128  0.76765902  1
  Fe  Fe175  1  0.71376285  0.37200183  0.01558025  1
  Fe  Fe176  1  0.71583892  0.37549391  0.51900333  1
  Fe  Fe177  1  0.71598134  0.88007692  0.01799842  1
  Fe  Fe178  1  0.71975607  0.86723777  0.51644589  1
  Fe  Fe179  1  0.28131111  0.12320447  0.48574830  1
  Fe  Fe180  1  0.28626047  0.12853019  0.98439239  1
  Fe  Fe181  1  0.27991586  0.63228346  0.48478015  1
  Fe  Fe182  1  0.28383571  0.61998685  0.98240118  1
  Fe  Fe183  1  0.22159579  0.37461548  0.23731293  1
  Fe  Fe184  1  0.21792879  0.37515388  0.73303432  1
  Fe  Fe185  1  0.21808884  0.87482235  0.23315364  1
  Fe  Fe186  1  0.21793215  0.87453768  0.73273712  1
  Fe  Fe187  1  0.71417126  0.37293396  0.01542205  1
  Fe  Fe188  1  0.71509609  0.37437286  0.52043175  1
  Fe  Fe189  1  0.71652160  0.87941962  0.01786275  1
  Fe  Fe190  1  0.71597351  0.37263776  0.51821046  1
  Fe  Fe191  1  0.71640019  0.87679440  0.01656534  1
  Fe  Fe192  1  0.71618766  0.87681283  0.51866239  1
  Fe  Fe193  1  0.28379379  0.12532030  0.48441431  1
  Fe  Fe194  1  0.28403716  0.12736074  0.98177837  1
  Fe  Fe195  1  0.21809498  0.87483272  0.73315080  1
  Fe  Fe196  1  0.78426796  0.12348547  0.26694202  1
  Fe  Fe197  1  0.78242036  0.12463196  0.76788135  1
  Fe  Fe198  1  0.78168274  0.62505980  0.26705340  1
  Fe  Fe199  1  0.78203764  0.62517758  0.76727283  1
  Fe  Fe200  1  0.71415047  0.37192342  0.01558671  1
  Fe  Fe201  1  0.71543819  0.37458269  0.51371861  1
  Fe  Fe202  1  0.71648774  0.87806971  0.01841843  1
  Fe  Fe203  1  0.71831534  0.87293158  0.51567508  1
  Fe  Fe204  1  0.28504498  0.12639521  0.48001993  1
  Fe  Fe205  1  0.28592065  0.12650655  0.98321530  1
  Fe  Fe206  1  0.28257337  0.62661280  0.48094138  1
  Fe  Fe207  1  0.21680954  0.37474098  0.22818956  1
  Fe  Fe208  1  0.21942382  0.37527086  0.73790302  1
  Fe  Fe209  1  0.21800720  0.87518545  0.23280980  1
  Fe  Fe210  1  0.21871438  0.87437513  0.73252446  1
  Fe  Fe211  1  0.77924169  0.12563547  0.26438411  1
  Fe  Fe212  1  0.78363019  0.12578675  0.77388319  1
  Fe  Fe213  1  0.78153430  0.62590336  0.26741762  1
  Fe  Fe214  1  0.78211162  0.62493093  0.76752632  1
  Fe  Fe215  1  0.71364568  0.37137908  0.01565439  1
  Fe  Fe216  1  0.71837658  0.37709380  0.51658118  1
  Fe  Fe217  1  0.78191617  0.62516800  0.26684761  1
  Fe  Fe218  1  0.78207388  0.62545905  0.76726784  1
  Fe  Fe219  1  0.71597095  0.37263838  0.01822288  1
  Fe  Fe220  1  0.71623969  0.37467165  0.51558172  1
  Fe  Fe221  1  0.71618004  0.87680927  0.01867603  1
  Fe  Fe222  1  0.71638822  0.87680240  0.51655067  1
  Fe  Fe223  1  0.28403049  0.12735196  0.48177718  1
  Fe  Fe224  1  0.28379490  0.12532255  0.98441880  1
  Fe  Fe225  1  0.28380962  0.62316893  0.48131481  1
  Fe  Fe226  1  0.28359229  0.62319739  0.98344814  1
  Fe  Fe227  1  0.78083294  0.12592716  0.76993767  1
  Fe  Fe228  1  0.78151762  0.62524352  0.26757466  1
  Fe  Fe229  1  0.78153508  0.62538792  0.76746489  1
  Fe  Fe230  1  0.71408150  0.37348945  0.01677958  1
  Fe  Fe231  1  0.71496298  0.37360119  0.51997899  1
  Fe  Fe232  1  0.71672237  0.87843956  0.01723438  1
  Fe  Fe233  1  0.71742375  0.87337738  0.51905931  1
  Fe  Fe234  1  0.28456450  0.12541419  0.48629101  1
  Fe  Fe235  1  0.28584208  0.12807299  0.98439894  1
  Fe  Fe236  1  0.28167340  0.62706670  0.48432867  1
  Fe  Fe237  1  0.28327517  0.62155690  0.98277063  1
  Fe  Fe238  1  0.21916240  0.37407475  0.23006364  1
  Fe  Fe239  1  0.21572892  0.37652211  0.73305102  1
  Fe  Fe240  1  0.21846244  0.87460719  0.23254945  1
  Fe  Fe241  1  0.21848929  0.87476145  0.73243660  1
  Fe  Fe242  1  0.77840297  0.12539306  0.26268967  1
  Fe  Fe243  1  0.78206553  0.12486140  0.76696744  1
  Fe  Fe244  1  0.28023763  0.63275199  0.48355458  1
  Fe  Fe245  1  0.28402092  0.61993188  0.98200252  1
  Fe  Fe246  1  0.21563158  0.37495583  0.22461513  1
  Fe  Fe247  1  0.21928901  0.37504644  0.73548986  1
  Fe  Fe248  1  0.21820629  0.87477307  0.23235327  1
  Fe  Fe249  1  0.21839025  0.87439908  0.73254458  1
  Fe  Fe250  1  0.78081289  0.12469134  0.26068191  1
  Fe  Fe251  1  0.78315187  0.12457296  0.76977489  1
  Fe  Fe252  1  0.78130679  0.62528699  0.26738952  1
  Fe  Fe253  1  0.78203157  0.62478531  0.76704274  1
  Fe  Fe254  1  0.71408684  0.37182620  0.01629517  1
  Fe  Fe255  1  0.71753476  0.37559647  0.51384717  1
  Fe  Fe256  1  0.71644794  0.87922214  0.01773793  1
  Fe  Fe257  1  0.71973816  0.86954786  0.51543759  1
  Fe  Fe258  1  0.71578799  0.88034370  0.01770316  1
  Fe  Fe259  1  0.72030889  0.86620201  0.51520495  1
  Fe  Fe260  1  0.28163409  0.12290423  0.48341045  1
  Fe  Fe261  1  0.28633627  0.12861703  0.98432002  1
  Fe  Fe262  1  0.27968037  0.63379596  0.48479874  1
  Fe  Fe263  1  0.28421503  0.61965623  0.98229817  1
  Fe  Fe264  1  0.21636536  0.37421530  0.22611676  1
  Fe  Fe265  1  0.22075382  0.37437014  0.73559332  1
  Fe  Fe266  1  0.21788576  0.87506139  0.23248892  1
  Fe  Fe267  1  0.21847314  0.87410212  0.73259292  1
  Fe  Fe268  1  0.78058552  0.12473746  0.26206453  1
  Fe  Fe269  1  0.78319225  0.12525944  0.77180199  1
  Fe  Fe270  1  0.78129619  0.62562605  0.26748428  1
  Fe  Fe271  1  0.78199218  0.62480564  0.76720693  1
  Fe  Fe272  1  0.71373716  0.37147054  0.01559431  1
  Fe  Fe273  1  0.71870093  0.37679440  0.51424238  1
  Fe  Fe274  1  0.71616973  0.88000325  0.01760009  1
  Fe  Fe275  1  0.72007150  0.86771699  0.51522418  1
  Fe  Fe276  1  0.28417793  0.12449821  0.48099131  1
  Fe  Fe277  1  0.28623197  0.12798692  0.98441499  1
  P  P278  1  0.09226606  0.12470296  0.20298358  1
  P  P279  1  0.09145870  0.12500114  0.70258244  1
  P  P280  1  0.09207670  0.62486987  0.20186253  1
  P  P281  1  0.09159910  0.62456421  0.70186518  1
  P  P282  1  0.40565780  0.37800080  0.44959472  1
  P  P283  1  0.40618994  0.37628419  0.94680672  1
  P  P284  1  0.40758098  0.87401109  0.45114675  1
  P  P285  1  0.40633788  0.87281163  0.95112648  1
  P  P286  1  0.59454546  0.12269240  0.04423491  1
  P  P287  1  0.59799851  0.11802285  0.54579315  1
  P  P288  1  0.59336295  0.62598046  0.04804089  1
  P  P289  1  0.59323140  0.62577232  0.54827434  1
  P  P290  1  0.90791980  0.37507304  0.29650157  1
  P  P291  1  0.90699139  0.37556483  0.79595310  1
  P  P292  1  0.90935433  0.87504859  0.29791582  1
  P  P293  1  0.90884122  0.87509969  0.29808391  1
  P  P294  1  0.90994107  0.87464463  0.79935119  1
  P  P295  1  0.40698638  0.37561213  0.95661718  1
  P  P296  1  0.40640961  0.87349664  0.45167167  1
  P  P297  1  0.40711130  0.87440600  0.95161092  1
  P  P298  1  0.59434119  0.12199351  0.05040185  1
  P  P299  1  0.59301203  0.12439150  0.54337150  1
  P  P300  1  0.59288055  0.62559251  0.54839710  1
  P  P301  1  0.90773249  0.37529405  0.29701228  1
  P  P302  1  0.90854775  0.37499001  0.79742022  1
  P  P303  1  0.90792448  0.87512449  0.29813995  1
  P  P304  1  0.90840426  0.87543273  0.79814143  1
  P  P305  1  0.40717582  0.87519971  0.45138060  1
  P  P306  1  0.40582648  0.87292773  0.95244065  1
  P  P307  1  0.09015559  0.62516471  0.70255326  1
  P  P308  1  0.39818421  0.38748505  0.45563252  1
  P  P309  1  0.40479705  0.37726580  0.95484325  1
  P  P310  1  0.59770279  0.12019782  0.55224476  1
  P  P311  1  0.59365807  0.62718972  0.04887870  1
  P  P312  1  0.59241844  0.62598776  0.54885696  1
  P  P313  1  0.09092654  0.62479634  0.20100474  1
  P  P314  1  0.09155136  0.62502900  0.70154369  1
  P  P315  1  0.40231089  0.37978905  0.44776177  1
  P  P316  1  0.90564189  0.37499457  0.29731887  1
  P  P317  1  0.90803458  0.37608906  0.79702699  1
  P  P318  1  0.59409489  0.12367754  0.05081727  1
  P  P319  1  0.09198171  0.12403226  0.20407031  1
  P  P320  1  0.59301407  0.12439240  0.04336573  1
  P  P321  1  0.59434519  0.12199034  0.55040352  1
  P  P322  1  0.59288569  0.62559602  0.04839811  1
  P  P323  1  0.59357951  0.62650591  0.54833874  1
  P  P324  1  0.90854292  0.37499488  0.29741775  1
  P  P325  1  0.90773986  0.37528786  0.79701269  1
  P  P326  1  0.90839828  0.87544052  0.29813013  1
  P  P327  1  0.90792665  0.87512055  0.79814465  1
  P  P328  1  0.09115985  0.62490115  0.70191693  1
  P  P329  1  0.39769017  0.38439237  0.44350471  1
  P  P330  1  0.40586755  0.37630605  0.94915780  1
  P  P331  1  0.40752211  0.87400942  0.45104196  1
  P  P332  1  0.40608808  0.87279094  0.95118714  1
  P  P333  1  0.59521191  0.12272460  0.04513617  1
  P  P334  1  0.60181880  0.11251083  0.54434553  1
  P  P335  1  0.59416905  0.62707120  0.04756451  1
  P  P336  1  0.09283085  0.12490281  0.70383493  1
  P  P337  1  0.08988945  0.62569122  0.20112094  1
  P  P338  1  0.09041912  0.62492235  0.70257757  1
  P  P339  1  0.39554413  0.39131174  0.45213634  1
  P  P340  1  0.40478128  0.37707534  0.95343453  1
  P  P341  1  0.40747604  0.87528913  0.45085063  1
  P  P342  1  0.40537989  0.87251953  0.95238947  1
  P  P343  1  0.59430064  0.12355532  0.04878646  1
  P  P344  1  0.60578015  0.11000612  0.55768291  1
  P  P345  1  0.59432277  0.62735159  0.04831422  1
  P  P346  1  0.91011476  0.87443166  0.79887775  1
  P  P347  1  0.09175369  0.12379531  0.20349140  1
  P  P348  1  0.09383938  0.12494933  0.70304645  1
  P  P349  1  0.08983667  0.62551562  0.20093083  1
  P  P350  1  0.09097722  0.62461095  0.70236430  1
  P  P351  1  0.39422356  0.38998297  0.44230087  1
  P  P352  1  0.40566598  0.37643049  0.95119451  1
  P  P353  1  0.40747819  0.87443069  0.45086691  1
  P  P354  1  0.40567384  0.87264863  0.95169216  1
  P  P355  1  0.59521988  0.12290781  0.04655215  1
  P  P356  1  0.90704115  0.37575675  0.79558571  1
  P  P357  1  0.90984267  0.87483667  0.29745131  1
  P  P358  1  0.90990546  0.87410929  0.79882598  1
  P  P359  1  0.09219842  0.12442646  0.20231318  1
  P  P360  1  0.09361689  0.12499954  0.70261329  1
  P  P361  1  0.09096873  0.62542228  0.20140439  1
  P  P362  1  0.09064281  0.62495254  0.70208511  1
  P  P363  1  0.40199972  0.38197668  0.45420203  1
  P  P364  1  0.40545528  0.37729848  0.95575107  1
  P  P365  1  0.40676451  0.87422457  0.45172894  1
  P  P366  1  0.40663378  0.87401788  0.95196640  1
  P  P367  1  0.59380339  0.12370854  0.05317647  1
  P  P368  1  0.60232609  0.11559273  0.55648279  1
  P  P369  1  0.59391036  0.62722095  0.04881931  1
  P  P370  1  0.59247426  0.62598738  0.54896276  1
  P  P371  1  0.59282251  0.62479993  0.54862647  1
  P  P372  1  0.90734479  0.37506712  0.29652063  1
  P  P373  1  0.60446757  0.10871152  0.54782274  1
  P  P374  1  0.59461470  0.62747889  0.04761704  1
  P  P375  1  0.59252294  0.62470883  0.54915355  1
  P  P376  1  0.90716819  0.37509541  0.29615567  1
  P  P377  1  0.90801264  0.37596161  0.79593102  1
  P  P378  1  0.90957858  0.87507915  0.29742703  1
  P  P379  1  0.91010966  0.87428947  0.79888741  1
  P  P380  1  0.09197280  0.12390343  0.20296660  1
  P  P381  1  0.09435354  0.12500530  0.70268039  1
  P  P382  1  0.09006144  0.62534299  0.20066299  1
  P  P383  1  0.40523938  0.37679362  0.95290155  1
  P  P384  1  0.40758635  0.87486813  0.45066795  1
  P  P385  1  0.40530997  0.87255377  0.95212550  1
  P  P386  1  0.59474892  0.12319557  0.04707490  1
  P  P387  1  0.60565484  0.10736722  0.55460763  1
  P  P388  1  0.59468748  0.62744751  0.04788125  1
  P  P389  1  0.59240505  0.62512846  0.54933834  1
  P  P390  1  0.90709540  0.37518555  0.29633062  1
  P  P391  1  0.90872192  0.37616884  0.79611268  1
  P  P392  1  0.90897959  0.87560851  0.29743210  1
  P  P393  1  0.59251779  0.62556334  0.54913731  1
  P  P394  1  0.90616334  0.37505067  0.29696739  1
  P  P395  1  0.90824989  0.37619668  0.79650709  1
  P  P396  1  0.90902177  0.87538959  0.29763684  1
  P  P397  1  0.91016701  0.87447471  0.79908909  1
  P  P398  1  0.09128144  0.12382567  0.20389010  1
  P  P399  1  0.09290622  0.12481366  0.70366218  1
  P  P400  1  0.08988543  0.62555144  0.20113867  1
  P  P401  1  0.09101765  0.62439217  0.70256988  1
  P  P402  1  0.39435110  0.39262709  0.44537954  1
  P  P403  1  0.90902836  0.87455434  0.79860298  1
  P  P404  1  0.09145612  0.12499848  0.20257553  1
  P  P405  1  0.09226664  0.12470459  0.70298799  1
  P  P406  1  0.09160306  0.62455822  0.20186639  1
  P  P407  1  0.09207515  0.62487661  0.70185169  1
  P  P408  1  0.40700247  0.37560064  0.45659641  1
  P  P409  1  0.40565803  0.37800330  0.94958615  1
  P  P410  1  0.40710933  0.87440874  0.45161297  1
  P  P411  1  0.40641266  0.87349398  0.95167074  1
  P  P412  1  0.90638263  0.37499612  0.29738656  1
  P  P413  1  0.90780332  0.37556798  0.79768168  1
  P  P414  1  0.90845161  0.87497370  0.29845917  1
  P  P415  1  0.90907274  0.87518088  0.79900430  1
  P  P416  1  0.09296174  0.12423976  0.20441939  1
  P  P417  1  0.09265695  0.12493206  0.70347188  1
  P  P418  1  0.09009384  0.62587093  0.20117836  1
  P  P419  1  0.59358485  0.62650848  0.04834118  1
  P  P420  1  0.09300885  0.12442418  0.20403868  1
  P  P421  1  0.09208156  0.12492658  0.70350601  1
  O  O422  1  0.09816596  0.12391878  0.36510388  1
  O  O423  1  0.09711723  0.12436896  0.86486643  1
  O  O424  1  0.39783237  0.87062256  0.61307140  1
  O  O425  1  0.16093721  0.02553254  0.13567767  1
  O  O426  1  0.15957269  0.02485958  0.63681957  1
  O  O427  1  0.15957245  0.52474170  0.13528062  1
  O  O428  1  0.15911456  0.52458861  0.63546397  1
  O  O429  1  0.90139011  0.87489221  0.13613237  1
  O  O430  1  0.90222326  0.87498381  0.63596451  1
  O  O431  1  0.04782828  0.37504478  0.35849660  1
  O  O432  1  0.04854609  0.37516422  0.85864706  1
  O  O433  1  0.04834109  0.87458034  0.35871264  1
  O  O434  1  0.84198185  0.77422202  0.36292329  1
  O  O435  1  0.83931517  0.77591406  0.86515161  1
  O  O436  1  0.83967920  0.47505371  0.36340343  1
  O  O437  1  0.84018834  0.47543201  0.86335803  1
  O  O438  1  0.84125126  0.97365484  0.36596288  1
  O  O439  1  0.84444538  0.97526944  0.86534757  1
  O  O440  1  0.90156929  0.37575049  0.13396436  1
  O  O441  1  0.90234869  0.37593478  0.63382728  1
  O  O442  1  0.90194268  0.87519106  0.13559482  1
  O  O443  1  0.90502094  0.87256648  0.63664592  1
  O  O444  1  0.32840584  0.27981952  0.89430610  1
  O  O445  1  0.89968885  0.37611291  0.13507870  1
  O  O446  1  0.90288044  0.37583439  0.63543638  1
  O  O447  1  0.90165897  0.87528075  0.13653541  1
  O  O448  1  0.09861647  0.62507784  0.36386881  1
  O  O449  1  0.09777358  0.62499073  0.86404258  1
  O  O450  1  0.83922381  0.27507231  0.36184542  1
  O  O451  1  0.83946060  0.27543510  0.86271966  1
  O  O452  1  0.83936554  0.77561717  0.36477178  1
  O  O453  1  0.66063193  0.52549522  0.61356738  1
  O  O454  1  0.16145273  0.22474893  0.13964116  1
  O  O455  1  0.16122382  0.22450153  0.63830429  1
  O  O456  1  0.16050062  0.72437759  0.13469467  1
  O  O457  1  0.15848911  0.72523895  0.63600582  1
  O  O458  1  0.95216885  0.12495912  0.64150201  1
  O  O459  1  0.95115326  0.62539335  0.14131605  1
  O  O460  1  0.95165395  0.62543092  0.64128361  1
  O  O461  1  0.45316481  0.11899130  0.09996144  1
  O  O462  1  0.45309624  0.12495204  0.60861015  1
  O  O463  1  0.45252319  0.62565884  0.10874713  1
  O  O464  1  0.45268806  0.62529218  0.60782146  1
  O  O465  1  0.54687498  0.38095746  0.40005532  1
  O  O466  1  0.54691157  0.37504178  0.89139058  1
  O  O467  1  0.54746721  0.87433840  0.39124844  1
  O  O468  1  0.33886550  0.77432799  0.38325687  1
  O  O469  1  0.33877460  0.77296485  0.88367478  1
  O  O470  1  0.33667926  0.48467360  0.37137332  1
  O  O471  1  0.33767087  0.47717494  0.88054267  1
  O  O472  1  0.33942010  0.97441270  0.38595132  1
  O  O473  1  0.33818200  0.97319986  0.88573485  1
  O  O474  1  0.90250184  0.37592338  0.63442957  1
  O  O475  1  0.90185312  0.87559687  0.13577073  1
  O  O476  1  0.90480045  0.87309281  0.63685422  1
  O  O477  1  0.04700087  0.37428309  0.35626949  1
  O  O478  1  0.04818707  0.37567779  0.85799551  1
  O  O479  1  0.04940617  0.87524664  0.35788351  1
  O  O480  1  0.05040220  0.87364217  0.85981861  1
  O  O481  1  0.39172974  0.38639504  0.11444049  1
  O  O482  1  0.38744214  0.39505500  0.61302722  1
  O  O483  1  0.39778047  0.87004909  0.11406038  1
  O  O484  1  0.84189844  0.97383085  0.36553018  1
  O  O485  1  0.84383438  0.97507246  0.86484025  1
  O  O486  1  0.90141377  0.37584053  0.13431511  1
  O  O487  1  0.90186826  0.37603799  0.63348505  1
  O  O488  1  0.90223662  0.87488441  0.13556895  1
  O  O489  1  0.33794588  0.97421907  0.38646504  1
  O  O490  1  0.33886986  0.97556372  0.38613505  1
  O  O491  1  0.33785914  0.97346039  0.88745864  1
  O  O492  1  0.95304547  0.12473384  0.14252794  1
  O  O493  1  0.95222618  0.12498195  0.64360862  1
  O  O494  1  0.94985407  0.62631581  0.14028473  1
  O  O495  1  0.94979402  0.62552345  0.64212249  1
  O  O496  1  0.45344430  0.11999987  0.10726722  1
  O  O497  1  0.45767795  0.12045535  0.59740943  1
  O  O498  1  0.45293287  0.62608782  0.10798150  1
  O  O499  1  0.15989549  0.02435563  0.13654851  1
  O  O500  1  0.16089796  0.02502404  0.63567014  1
  O  O501  1  0.15532001  0.52463197  0.13366863  1
  O  O502  1  0.15999998  0.52627407  0.63384385  1
  O  O503  1  0.67158579  0.22017258  0.10567315  1
  O  O504  1  0.66837608  0.21517903  0.60215698  1
  O  O505  1  0.66145625  0.72708244  0.11596604  1
  O  O506  1  0.66078905  0.72452511  0.61703686  1
  O  O507  1  0.32701557  0.28494406  0.39432171  1
  O  O508  1  0.32916335  0.27918728  0.89172013  1
  O  O509  1  0.90391380  0.87376207  0.63716531  1
  O  O510  1  0.04655843  0.37410962  0.35652040  1
  O  O511  1  0.04773225  0.37572186  0.85919949  1
  O  O512  1  0.04936534  0.87504101  0.35812319  1
  O  O513  1  0.05028178  0.87374057  0.85972290  1
  O  O514  1  0.39283848  0.38536426  0.11636199  1
  O  O515  1  0.38965527  0.39313025  0.61578527  1
  O  O516  1  0.39859748  0.87124942  0.11432722  1
  O  O517  1  0.33807578  0.47647261  0.89033133  1
  O  O518  1  0.33762322  0.97336790  0.38593943  1
  O  O519  1  0.83909490  0.47504957  0.86337637  1
  O  O520  1  0.33845966  0.97453219  0.88732094  1
  O  O521  1  0.95308422  0.12479891  0.14199594  1
  O  O522  1  0.95185958  0.12515506  0.64307453  1
  O  O523  1  0.95053543  0.62587628  0.14087645  1
  O  O524  1  0.95018878  0.62545337  0.64171926  1
  O  O525  1  0.45355677  0.12314150  0.11324124  1
  O  O526  1  0.45510266  0.11881642  0.60055612  1
  O  O527  1  0.45263681  0.62612252  0.10797889  1
  O  O528  1  0.45193989  0.62666888  0.60862929  1
  O  O529  1  0.54416045  0.37594257  0.39760650  1
  O  O530  1  0.04768356  0.37492349  0.35604410  1
  O  O531  1  0.04805626  0.37533031  0.85723690  1
  O  O532  1  0.04992615  0.87474086  0.35777535  1
  O  O533  1  0.05032152  0.87358826  0.85988446  1
  O  O534  1  0.39253834  0.38615164  0.11214586  1
  O  O535  1  0.38735811  0.39032805  0.60684705  1
  O  O536  1  0.39789212  0.86988593  0.11340440  1
  O  O537  1  0.39773924  0.87064283  0.61214727  1
  O  O538  1  0.15959507  0.02478654  0.63692257  1
  O  O539  1  0.15757167  0.52482946  0.13514344  1
  O  O540  1  0.15818296  0.52539644  0.63494309  1
  O  O541  1  0.66451628  0.22296647  0.11729118  1
  O  O542  1  0.67380294  0.21926764  0.60518788  1
  O  O543  1  0.66096598  0.72702715  0.11658605  1
  O  O544  1  0.66114283  0.72563126  0.61606384  1
  O  O545  1  0.33634273  0.27884024  0.39322712  1
  O  O546  1  0.32841312  0.27999064  0.89820267  1
  O  O547  1  0.33932127  0.77453570  0.38297778  1
  O  O548  1  0.60745095  0.11383468  0.88784001  1
  O  O549  1  0.60225679  0.62936482  0.38785403  1
  O  O550  1  0.60210434  0.63012822  0.88660207  1
  O  O551  1  0.66187552  0.02296535  0.11924679  1
  O  O552  1  0.66681039  0.01096214  0.62935483  1
  O  O553  1  0.66235682  0.52690285  0.11356169  1
  O  O554  1  0.66047270  0.52501756  0.61403895  1
  O  O555  1  0.16061951  0.22433995  0.13966008  1
  O  O556  1  0.16275868  0.22384833  0.63820683  1
  O  O557  1  0.16068571  0.72407607  0.13489034  1
  O  O558  1  0.33921214  0.77546556  0.38297877  1
  O  O559  1  0.33854137  0.77291211  0.88404577  1
  O  O560  1  0.33221673  0.48706179  0.37410445  1
  O  O561  1  0.33759568  0.47781843  0.88249949  1
  O  O562  1  0.33927205  0.97581468  0.38596903  1
  O  O563  1  0.15801064  0.72578186  0.63707956  1
  O  O564  1  0.09739138  0.12412511  0.36602660  1
  O  O565  1  0.09832395  0.12438326  0.86590308  1
  O  O566  1  0.09467493  0.62747075  0.36341497  1
  O  O567  1  0.09830768  0.62442540  0.86439952  1
  O  O568  1  0.83679571  0.27643190  0.36228581  1
  O  O569  1  0.84017734  0.27583600  0.86095440  1
  O  O570  1  0.84186561  0.77439114  0.36275407  1
  O  O571  1  0.83924457  0.77609641  0.86511896  1
  O  O572  1  0.83972507  0.47516106  0.36354938  1
  O  O573  1  0.15910306  0.52457682  0.13545862  1
  O  O574  1  0.15957929  0.52474836  0.63527815  1
  O  O575  1  0.67035161  0.22091427  0.10265561  1
  O  O576  1  0.66272519  0.22324496  0.61272985  1
  O  O577  1  0.66181963  0.72548387  0.11396671  1
  O  O578  1  0.66076358  0.72636927  0.61628316  1
  O  O579  1  0.32967002  0.27905816  0.39735400  1
  O  O580  1  0.33728075  0.27674519  0.88726498  1
  O  O581  1  0.33818520  0.77452043  0.38604133  1
  O  O582  1  0.83936218  0.77561446  0.86476977  1
  O  O583  1  0.84043855  0.47513803  0.36318481  1
  O  O584  1  0.83907334  0.47445837  0.86431700  1
  O  O585  1  0.84089841  0.97542069  0.36453472  1
  O  O586  1  0.84043219  0.97525689  0.86469489  1
  O  O587  1  0.90288778  0.37562833  0.13513477  1
  O  O588  1  0.90183730  0.37606008  0.63489302  1
  O  O589  1  0.90223065  0.87499690  0.13595315  1
  O  O590  1  0.90138567  0.87486670  0.63613274  1
  O  O591  1  0.04854133  0.37515919  0.35863954  1
  O  O592  1  0.54736068  0.87387481  0.89202812  1
  O  O593  1  0.60826476  0.11015316  0.38564654  1
  O  O594  1  0.90292743  0.87442046  0.63685539  1
  O  O595  1  0.04710985  0.37433694  0.35710034  1
  O  O596  1  0.04752925  0.37547175  0.85973433  1
  O  O597  1  0.04897833  0.87493227  0.35850432  1
  O  O598  1  0.04955415  0.87426633  0.85929108  1
  O  O599  1  0.39535851  0.38431302  0.11775513  1
  O  O600  1  0.39172869  0.38985052  0.61434833  1
  O  O601  1  0.39988882  0.87280390  0.11403172  1
  O  O602  1  0.54618854  0.38165919  0.90107252  1
  O  O603  1  0.54769413  0.87546316  0.39252812  1
  O  O604  1  0.15989222  0.22405792  0.13817570  1
  O  O605  1  0.16455622  0.22391239  0.63784831  1
  O  O606  1  0.16083793  0.72380771  0.13480842  1
  O  O607  1  0.33745339  0.97310443  0.88733206  1
  O  O608  1  0.95194339  0.12467226  0.14275606  1
  O  O609  1  0.95231550  0.12507084  0.64395007  1
  O  O610  1  0.94967890  0.62640983  0.14011935  1
  O  O611  1  0.95006979  0.62526608  0.64223328  1
  O  O612  1  0.45364989  0.11922653  0.10403195  1
  O  O613  1  0.45995946  0.12030564  0.59688321  1
  O  O614  1  0.45332004  0.62575932  0.10736351  1
  O  O615  1  0.45181590  0.62668548  0.60798558  1
  O  O616  1  0.54000436  0.38320280  0.40130497  1
  O  O617  1  0.45440131  0.11810078  0.10101150  1
  O  O618  1  0.46000916  0.11680186  0.59867279  1
  O  O619  1  0.45340572  0.62577742  0.10624784  1
  O  O620  1  0.45174174  0.62449006  0.60790644  1
  O  O621  1  0.54004259  0.37967969  0.40310272  1
  O  O622  1  0.54630390  0.38073858  0.89591718  1
  O  O623  1  0.33886076  0.77436323  0.38394759  1
  O  O624  1  0.33903260  0.77297131  0.88342392  1
  O  O625  1  0.33791737  0.47991253  0.37644514  1
  O  O626  1  0.84072093  0.47557068  0.86338795  1
  O  O627  1  0.83998149  0.97385460  0.36600342  1
  O  O628  1  0.84465614  0.97540899  0.86572937  1
  O  O629  1  0.90167496  0.37560310  0.13409181  1
  O  O630  1  0.90260705  0.37583766  0.63397892  1
  O  O631  1  0.90169290  0.87554902  0.13560327  1
  O  O632  1  0.90531654  0.87245595  0.63660092  1
  O  O633  1  0.04774881  0.37455707  0.35605574  1
  O  O634  1  0.04876374  0.37543558  0.85702883  1
  O  O635  1  0.04927873  0.87527472  0.35785298  1
  O  O636  1  0.33924128  0.77362853  0.88371944  1
  O  O637  1  0.33811761  0.47647911  0.39030368  1
  O  O638  1  0.33929743  0.47725274  0.87793425  1
  O  O639  1  0.33865578  0.97469746  0.38689360  1
  O  O640  1  0.33762349  0.97336624  0.88594438  1
  O  O641  1  0.95145396  0.12483882  0.14135961  1
  O  O642  1  0.09806106  0.62478288  0.86440702  1
  O  O643  1  0.83543514  0.27608462  0.36214748  1
  O  O644  1  0.84010997  0.27593524  0.86183666  1
  O  O645  1  0.84182738  0.77435906  0.36308037  1
  O  O646  1  0.83916227  0.77619108  0.86523292  1
  O  O647  1  0.83910858  0.47498337  0.36432811  1
  O  O648  1  0.84010689  0.47564022  0.86344151  1
  O  O649  1  0.84000456  0.97373150  0.36614768  1
  O  O650  1  0.84469766  0.97536847  0.86633038  1
  O  O651  1  0.90061539  0.37586566  0.13465294  1
  O  O652  1  0.16077403  0.22492984  0.63816131  1
  O  O653  1  0.16016244  0.72423119  0.13567793  1
  O  O654  1  0.16062016  0.72439321  0.63523663  1
  O  O655  1  0.16061907  0.02464414  0.13634300  1
  O  O656  1  0.16106036  0.02540357  0.63496309  1
  O  O657  1  0.15742078  0.52450899  0.13395409  1
  O  O658  1  0.15964960  0.52562685  0.63390027  1
  O  O659  1  0.67158486  0.22000715  0.10176691  1
  O  O660  1  0.66365725  0.22115810  0.60676877  1
  O  O661  1  0.66116936  0.72572784  0.11496067  1
  O  O662  1  0.66068438  0.72545425  0.61703051  1
  O  O663  1  0.32621086  0.28072834  0.39479386  1
  O  O664  1  0.33547813  0.27702599  0.88269030  1
  O  O665  1  0.09813118  0.12392270  0.36652092  1
  O  O666  1  0.09858486  0.12414349  0.86568228  1
  O  O667  1  0.09559124  0.62714501  0.36335882  1
  O  O668  1  0.09777142  0.62508706  0.86443164  1
  O  O669  1  0.83540602  0.27558328  0.36205106  1
  O  O670  1  0.66192211  0.02352953  0.60965562  1
  O  O671  1  0.66237189  0.52663075  0.11405062  1
  O  O672  1  0.66133573  0.52529775  0.61309471  1
  O  O673  1  0.16078271  0.22492812  0.13816923  1
  O  O674  1  0.16053754  0.22455810  0.63728089  1
  O  O675  1  0.16062716  0.72438605  0.13524754  1
  O  O676  1  0.16016008  0.72423227  0.63566900  1
  O  O677  1  0.09812570  0.12391251  0.36608828  1
  O  O678  1  0.09826373  0.12427819  0.86570383  1
  O  O679  1  0.09690973  0.62628986  0.36350460  1
  O  O680  1  0.09773370  0.62528656  0.86407339  1
  O  O681  1  0.83720740  0.27516389  0.36241301  1
  O  O682  1  0.83941806  0.27560898  0.86328415  1
  O  O683  1  0.84050173  0.77496347  0.36465990  1
  O  O684  1  0.83961880  0.77603233  0.86518776  1
  O  O685  1  0.04783623  0.37504924  0.85849968  1
  O  O686  1  0.04884344  0.87462055  0.35868438  1
  O  O687  1  0.04834363  0.87457951  0.85871564  1
  O  O688  1  0.39400320  0.38617536  0.10979124  1
  O  O689  1  0.54730100  0.87469888  0.89217893  1
  O  O690  1  0.60599439  0.11380849  0.39019855  1
  O  O691  1  0.83877347  0.27549908  0.36170460  1
  O  O692  1  0.83855911  0.27524023  0.86037110  1
  O  O693  1  0.84149431  0.77476983  0.36400021  1
  O  O694  1  0.83949459  0.77561157  0.86534385  1
  O  O695  1  0.84041512  0.47521661  0.36308927  1
  O  O696  1  0.83840059  0.47461889  0.86366896  1
  O  O697  1  0.84181990  0.97460930  0.36504924  1
  O  O698  1  0.84242296  0.97515875  0.86482180  1
  O  O699  1  0.90173732  0.37571360  0.13430664  1
  O  O700  1  0.90188538  0.37604169  0.63390434  1
  O  O701  1  0.66141996  0.72721468  0.11615157  1
  O  O702  1  0.66064277  0.72486927  0.61768909  1
  O  O703  1  0.33199813  0.28463131  0.39563624  1
  O  O704  1  0.32884580  0.27957180  0.89348972  1
  O  O705  1  0.33935785  0.77512106  0.38232377  1
  O  O706  1  0.33857571  0.77278444  0.88386225  1
  O  O707  1  0.33076602  0.48934349  0.37177645  1
  O  O708  1  0.33824484  0.47720535  0.88117876  1
  O  O709  1  0.33924704  0.97540212  0.38595319  1
  O  O710  1  0.33718543  0.97302198  0.88694848  1
  O  O711  1  0.33864737  0.77331155  0.88459089  1
  O  O712  1  0.33424768  0.48356077  0.37713311  1
  O  O713  1  0.33741704  0.47794398  0.88418780  1
  O  O714  1  0.39787627  0.87133776  0.61265664  1
  O  O715  1  0.16091096  0.02494792  0.13662118  1
  O  O716  1  0.16007170  0.02487035  0.63649304  1
  O  O717  1  0.15616505  0.52491546  0.13513287  1
  O  O718  1  0.15810510  0.52617453  0.63446343  1
  O  O719  1  0.66994373  0.22130565  0.11058203  1
  O  O720  1  0.67575485  0.21675771  0.60628941  1
  O  O721  1  0.83894534  0.47459384  0.36503740  1
  O  O722  1  0.83938439  0.47535328  0.86364613  1
  O  O723  1  0.84036612  0.97438187  0.36609914  1
  O  O724  1  0.84257870  0.97548067  0.86601389  1
  O  O725  1  0.89996254  0.37606528  0.13521113  1
  O  O726  1  0.66272235  0.22325056  0.11272535  1
  O  O727  1  0.90184280  0.37606459  0.13489209  1
  O  O728  1  0.90288520  0.37562533  0.63513874  1
  O  O729  1  0.66075777  0.72637730  0.11628339  1
  O  O730  1  0.66182224  0.72547570  0.61396617  1
  O  O731  1  0.95227703  0.12427495  0.14079190  1
  O  O732  1  0.95343700  0.12588436  0.64347321  1
  O  O733  1  0.94972440  0.62626248  0.14028479  1
  O  O734  1  0.95063240  0.62496546  0.64188689  1
  O  O735  1  0.45436889  0.11788357  0.09937049  1
  O  O736  1  0.45845845  0.11973559  0.59830893  1
  O  O737  1  0.45305141  0.62578057  0.10616550  1
  O  O738  1  0.45204550  0.62460363  0.60776965  1
  O  O739  1  0.54233140  0.37955523  0.40255257  1
  O  O740  1  0.54650694  0.37994931  0.89266953  1
  O  O741  1  0.60463067  0.11568286  0.88223037  1
  O  O742  1  0.60209572  0.62961527  0.38701129  1
  O  O743  1  0.39782537  0.87175992  0.61215338  1
  O  O744  1  0.15982053  0.02456616  0.13664342  1
  O  O745  1  0.16033116  0.02494779  0.63659428  1
  O  O746  1  0.15555595  0.52472026  0.13463045  1
  O  O747  1  0.15875438  0.52635225  0.63403069  1
  O  O748  1  0.67078521  0.22080507  0.10826296  1
  O  O749  1  0.67298729  0.21504372  0.60567275  1
  O  O750  1  0.66134301  0.72713338  0.11625903  1
  O  O751  1  0.66101286  0.72527117  0.61739021  1
  O  O752  1  0.33164129  0.28483807  0.39782931  1
  O  O753  1  0.54741195  0.87493332  0.89263019  1
  O  O754  1  0.60730246  0.11530847  0.38843689  1
  O  O755  1  0.60526549  0.11652543  0.89260422  1
  O  O756  1  0.60045505  0.62871386  0.38719460  1
  O  O757  1  0.60187117  0.63011788  0.88726994  1
  O  O758  1  0.66186285  0.02321681  0.12105155  1
  O  O759  1  0.66209216  0.02006903  0.62355078  1
  O  O760  1  0.66178837  0.52696134  0.11447995  1
  O  O761  1  0.90295015  0.37607598  0.63486053  1
  O  O762  1  0.90183534  0.87552372  0.13616117  1
  O  O763  1  0.15816072  0.72564771  0.63693037  1
  O  O764  1  0.09704821  0.12389046  0.36513725  1
  O  O765  1  0.10030438  0.12387292  0.86491792  1
  O  O766  1  0.09608659  0.62615740  0.36284503  1
  O  O767  1  0.09816855  0.62444368  0.86383998  1
  O  O768  1  0.83795502  0.27573457  0.36167312  1
  O  O769  1  0.83837992  0.27549330  0.85991167  1
  O  O770  1  0.84224685  0.77417347  0.36325067  1
  O  O771  1  0.83947400  0.77561761  0.86532432  1
  O  O772  1  0.83993969  0.47513129  0.36350715  1
  O  O773  1  0.40092501  0.37736904  0.61987590  1
  O  O774  1  0.39784088  0.87063004  0.11307117  1
  O  O775  1  0.40090116  0.87336721  0.61368575  1
  O  O776  1  0.15956819  0.02485336  0.13682395  1
  O  O777  1  0.16093970  0.02553627  0.63567436  1
  O  O778  1  0.16037651  0.72395778  0.13485396  1
  O  O779  1  0.15948557  0.72504892  0.63535092  1
  O  O780  1  0.09712144  0.12436192  0.36485887  1
  O  O781  1  0.09816076  0.12392578  0.86510905  1
  O  O782  1  0.09778832  0.62496247  0.36403791  1
  O  O783  1  0.09861635  0.62509235  0.86385956  1
  O  O784  1  0.83945955  0.27544062  0.36272364  1
  O  O785  1  0.83922743  0.27506543  0.86184048  1
  O  O786  1  0.83982079  0.77578087  0.36433257  1
  O  O787  1  0.59907145  0.12263351  0.88008370  1
  O  O788  1  0.60215786  0.62937984  0.38693857  1
  O  O789  1  0.59910451  0.62666294  0.88632818  1
  O  O790  1  0.66191583  0.02352904  0.10964698  1
  O  O791  1  0.66070454  0.02274137  0.62206225  1
  O  O792  1  0.66134189  0.52529996  0.11309202  1
  O  O793  1  0.66236639  0.52663138  0.61405625  1
  O  O794  1  0.16054224  0.22455769  0.13729011  1
  O  O795  1  0.90226949  0.87468608  0.13592606  1
  O  O796  1  0.90308830  0.87361899  0.63649983  1
  O  O797  1  0.04815484  0.37484023  0.35690330  1
  O  O798  1  0.04691363  0.37519841  0.85800266  1
  O  O799  1  0.04980399  0.87455261  0.35829109  1
  O  O800  1  0.04946160  0.87412417  0.85912757  1
  O  O801  1  0.39473300  0.38346471  0.10737734  1
  O  O802  1  0.39271771  0.38466761  0.61157227  1
  O  O803  1  0.39812155  0.86989020  0.11273421  1
  O  O804  1  0.39954859  0.87129988  0.61280868  1
  O  O805  1  0.67111750  0.22042582  0.10649949  1
  O  O806  1  0.66800740  0.21536536  0.60434232  1
  O  O807  1  0.84044097  0.47513736  0.86317089  1
  O  O808  1  0.84043229  0.97525537  0.36471344  1
  O  O809  1  0.84090536  0.97542175  0.86452099  1
  O  O810  1  0.67035450  0.22091200  0.60265965  1
  O  O811  1  0.04885249  0.87461025  0.85869124  1
  O  O812  1  0.40092533  0.37736776  0.11989802  1
  O  O813  1  0.39399280  0.38617635  0.60980035  1
  O  O814  1  0.40089912  0.87336076  0.11368278  1
  O  O815  1  0.32831199  0.27991359  0.89637647  1
  O  O816  1  0.33893979  0.77549599  0.38326109  1
  O  O817  1  0.95124307  0.12456415  0.14296738  1
  O  O818  1  0.95225444  0.12543849  0.64393840  1
  O  O819  1  0.94969160  0.62642082  0.14011544  1
  O  O820  1  0.95071598  0.62472936  0.64215749  1
  O  O821  1  0.45392829  0.11865357  0.10169414  1
  O  O822  1  0.46037083  0.11649555  0.60061285  1
  O  O823  1  0.45356383  0.62558978  0.10678930  1
  O  O824  1  0.45164824  0.62513391  0.60798337  1
  O  O825  1  0.53963360  0.38350405  0.39936805  1
  O  O826  1  0.54606242  0.38132496  0.89828329  1
  O  O827  1  0.33813452  0.47677807  0.87893617  1
  O  O828  1  0.33936070  0.97450013  0.38643231  1
  O  O829  1  0.33821107  0.97303968  0.88551753  1
  O  O830  1  0.54833541  0.87485609  0.39201224  1
  O  O831  1  0.54643402  0.87440254  0.89321720  1
  O  O832  1  0.61083151  0.10983984  0.39182210  1
  O  O833  1  0.60800824  0.11355715  0.88624508  1
  O  O834  1  0.60236861  0.62897549  0.38807693  1
  O  O835  1  0.60248561  0.63027330  0.88626984  1
  O  O836  1  0.66173392  0.02278661  0.11881806  1
  O  O837  1  0.66923922  0.01065418  0.62821944  1
  O  O838  1  0.66280952  0.52697506  0.11304531  1
  O  O839  1  0.66074270  0.52459064  0.61404439  1
  O  O840  1  0.90440118  0.87277244  0.63664538  1
  O  O841  1  0.04777740  0.37501317  0.35638723  1
  O  O842  1  0.04696155  0.37526778  0.85747045  1
  O  O843  1  0.05020116  0.87448274  0.35788674  1
  O  O844  1  0.05014363  0.87368293  0.85971963  1
  O  O845  1  0.39327584  0.38528437  0.11005479  1
  O  O846  1  0.38674702  0.38980236  0.60794724  1
  O  O847  1  0.39820147  0.87030107  0.11293265  1
  O  O848  1  0.39860577  0.87059836  0.61249453  1
  O  O849  1  0.45184950  0.62722173  0.60818482  1
  O  O850  1  0.54154673  0.38024923  0.40167870  1
  O  O851  1  0.54564922  0.38209207  0.90063184  1
  O  O852  1  0.54795076  0.87538946  0.39223123  1
  O  O853  1  0.54694486  0.87421178  0.89384062  1
  O  O854  1  0.61326453  0.11018366  0.39204179  1
  O  O855  1  0.60670878  0.11470041  0.88992174  1
  O  O856  1  0.60139382  0.62940863  0.38750928  1
  O  O857  1  0.60178688  0.62971643  0.88707265  1
  O  O858  1  0.66229571  0.02281880  0.11945581  1
  O  O859  1  0.95247196  0.12453018  0.14026214  1
  O  O860  1  0.15982699  0.22415801  0.13905387  1
  O  O861  1  0.16320195  0.22356958  0.63771085  1
  O  O862  1  0.16075794  0.72389332  0.13492115  1
  O  O863  1  0.15812026  0.72561658  0.63725599  1
  O  O864  1  0.09749471  0.12403678  0.36556994  1
  O  O865  1  0.09937441  0.12411851  0.86533460  1
  O  O866  1  0.09519742  0.62683382  0.36316275  1
  O  O867  1  0.09814740  0.62436838  0.86423168  1
  O  O868  1  0.83723915  0.27615273  0.36179185  1
  O  O869  1  0.83938103  0.27565391  0.86035147  1
  O  O870  1  0.66123431  0.72704227  0.11633272  1
  O  O871  1  0.66113692  0.72566396  0.61675369  1
  O  O872  1  0.33276549  0.28270555  0.39835914  1
  O  O873  1  0.83997651  0.27593086  0.86242549  1
  O  O874  1  0.84160359  0.77440412  0.36380075  1
  O  O875  1  0.83934268  0.77608401  0.86539243  1
  O  O876  1  0.83869425  0.47476967  0.36511948  1
  O  O877  1  0.83964054  0.47562078  0.86359705  1
  O  O878  1  0.84044754  0.97390314  0.36634917  1
  O  O879  1  0.84423965  0.97534656  0.86661637  1
  O  O880  1  0.16036461  0.02437252  0.13638902  1
  O  O881  1  0.16131557  0.02523228  0.63488531  1
  O  O882  1  0.15577562  0.52465138  0.13337247  1
  O  O883  1  0.15955955  0.52610150  0.63364562  1
  O  O884  1  0.67169355  0.22007552  0.10361129  1
  O  O885  1  0.66722003  0.21729379  0.60162790  1
  O  O886  1  0.66134953  0.72668530  0.11542135  1
  O  O887  1  0.66106282  0.72449854  0.61675466  1
  O  O888  1  0.32425128  0.28322987  0.39370468  1
  O  O889  1  0.32999945  0.27868171  0.88940449  1
  O  O890  1  0.45251999  0.62565558  0.60875536  1
  O  O891  1  0.54690703  0.37504046  0.39138420  1
  O  O892  1  0.54684209  0.38099825  0.90003820  1
  O  O893  1  0.54729848  0.87469898  0.39218447  1
  O  O894  1  0.54746971  0.87433712  0.89125019  1
  O  O895  1  0.59907553  0.12263449  0.38008694  1
  O  O896  1  0.60599230  0.11380806  0.89019812  1
  O  O897  1  0.59910318  0.62665416  0.38632690  1
  O  O898  1  0.60215968  0.62938800  0.88694182  1
  O  O899  1  0.66069963  0.02274133  0.12205506  1
  O  O900  1  0.54559842  0.38188116  0.89897170  1
  O  O901  1  0.54825475  0.87550087  0.39209614  1
  O  O902  1  0.54658919  0.87421755  0.89375731  1
  O  O903  1  0.61263905  0.10967044  0.39313774  1
  O  O904  1  0.45230096  0.62453589  0.60747266  1
  O  O905  1  0.54490323  0.38118139  0.39942590  1
  O  O906  1  0.54643844  0.37684458  0.88674197  1
  O  O907  1  0.54805859  0.87332917  0.39136881  1
  O  O908  1  0.54817877  0.87330985  0.39201216  1
  O  O909  1  0.54667361  0.87422838  0.89264142  1
  O  O910  1  0.61255781  0.10493595  0.38693767  1
  O  O911  1  0.60826541  0.11359931  0.88554398  1
  O  O912  1  0.60217301  0.62825594  0.38785060  1
  O  O913  1  0.60220958  0.62995893  0.88594314  1
  O  O914  1  0.66242448  0.02216615  0.11747174  1
  O  O915  1  0.66778708  0.01296385  0.62586138  1
  O  O916  1  0.66253500  0.52688953  0.11266111  1
  O  O917  1  0.66071952  0.52417781  0.61402887  1
  O  O918  1  0.33899033  0.77471691  0.38261897  1
  O  O919  1  0.33865628  0.77286195  0.88375018  1
  O  O920  1  0.33319301  0.48903243  0.37063273  1
  O  O921  1  0.33810265  0.47702703  0.88074082  1
  O  O922  1  0.33951803  0.97497423  0.38596047  1
  O  O923  1  0.33763772  0.97309697  0.88643886  1
  O  O924  1  0.95181587  0.12431928  0.14199983  1
  O  O925  1  0.95301063  0.12571357  0.64372626  1
  O  O926  1  0.94960812  0.62635905  0.14018869  1
  O  O927  1  0.95058928  0.62475726  0.64212815  1
  O  O928  1  0.66332395  0.01531339  0.62862871  1
  O  O929  1  0.66181405  0.52680801  0.11425873  1
  O  O930  1  0.66057094  0.52558169  0.61404954  1
  O  O931  1  0.16162288  0.22450281  0.14009861  1
  O  O932  1  0.16204518  0.22426491  0.63832505  1
  O  O933  1  0.16052310  0.72437523  0.13471764  1
  O  O934  1  0.15773970  0.72583410  0.63675448  1
  O  O935  1  0.09764674  0.12402877  0.36617542  1
  O  O936  1  0.09842747  0.12423127  0.86602911  1
  O  O937  1  0.09496980  0.62735474  0.36336317  1
  O  O938  1  0.66213088  0.52653312  0.11253277  1
  O  O939  1  0.66112385  0.52443219  0.61386542  1
  O  O940  1  0.16002972  0.22406563  0.13758131  1
  O  O941  1  0.16459183  0.22441797  0.63795229  1
  O  O942  1  0.16065534  0.72391230  0.13464501  1
  O  O943  1  0.15838722  0.72560211  0.63620650  1
  O  O944  1  0.09711847  0.12413240  0.36456037  1
  O  O945  1  0.10003478  0.12391997  0.86478878  1
  O  O946  1  0.09707446  0.62548680  0.36315106  1
  O  O947  1  0.09834629  0.62469322  0.86346686  1
  O  O948  1  0.66204332  0.52577547  0.61354092  1
  O  O949  1  0.16058112  0.22438810  0.13671990  1
  O  O950  1  0.16278279  0.22483498  0.63758602  1
  O  O951  1  0.16002301  0.52615167  0.63399039  1
  O  O952  1  0.33728472  0.27674732  0.38725020  1
  O  O953  1  0.32965468  0.27908320  0.89734300  1
  O  O954  1  0.33924018  0.77362895  0.38372227  1
  O  O955  1  0.33817868  0.77452053  0.88603932  1
  O  O956  1  0.33929951  0.47725034  0.37793558  1
  O  O957  1  0.33882656  0.77426811  0.88505500  1
  O  O958  1  0.33667018  0.47975340  0.37928565  1
  O  O959  1  0.33787030  0.47780464  0.88548618  1
  O  O960  1  0.83982973  0.77576931  0.86433571  1
  O  O961  1  0.83906975  0.47446176  0.36433154  1
  O  O962  1  0.33865645  0.97469790  0.88690266  1
  O  O963  1  0.95216588  0.12495863  0.14150262  1
  O  O964  1  0.95146263  0.12484210  0.64135379  1
  O  O965  1  0.95166089  0.62542696  0.14128457  1
  O  O966  1  0.95115236  0.62539219  0.64131037  1
  O  O967  1  0.45309110  0.12495478  0.10860964  1
  O  O968  1  0.45316087  0.11899402  0.59996771  1
  O  O969  1  0.45269173  0.62529898  0.10781855  1
  O  O970  1  0.39790169  0.87039243  0.61299231  1
  O  O971  1  0.16161314  0.02537806  0.13631849  1
  O  O972  1  0.95289022  0.12565381  0.64289643  1
  O  O973  1  0.95044573  0.62573040  0.14071562  1
  O  O974  1  0.95102122  0.62507183  0.64150576  1
  O  O975  1  0.45381353  0.11833712  0.09891701  1
  O  O976  1  0.45583891  0.12405102  0.60239238  1
  O  O977  1  0.45258448  0.62505850  0.10737507  1
  O  O978  1  0.54814575  0.87277495  0.39181438  1
  O  O979  1  0.54706538  0.87390894  0.89202441  1
  O  O980  1  0.61034858  0.10686399  0.38419347  1
  O  O981  1  0.60716411  0.11462484  0.88361591  1
  O  O982  1  0.60212512  0.62868007  0.38735012  1
  O  O983  1  0.60139761  0.62876484  0.88567814  1
  O  O984  1  0.66260665  0.02205231  0.11578437  1
  O  O985  1  0.66576159  0.01644045  0.62284909  1
  O  O986  1  0.60011006  0.62721161  0.88597535  1
  O  O987  1  0.66213895  0.02218958  0.11449972  1
  O  O988  1  0.66333531  0.02024913  0.62070920  1
  O  O989  1  0.66153934  0.52546465  0.11267632  1
  O  O990  1  0.39198118  0.38643652  0.11372897  1
  O  O991  1  0.38916472  0.39015157  0.60816587  1
  O  O992  1  0.39750873  0.86973837  0.11373578  1
  O  O993  1  0.39762826  0.87103583  0.61192775  1
  O  O994  1  0.15928522  0.02442641  0.13660791  1
  O  O995  1  0.16028553  0.02483984  0.63645073  1
  O  O996  1  0.15535231  0.52458554  0.13425697  1
  O  O997  1  0.05031383  0.87357719  0.85988920  1
