# generated using pymatgen
data_Li67Fe72(PO4)72
_symmetry_space_group_name_H-M   'P 1'
_cell_length_a   10.33860738
_cell_length_b   12.50265359
_cell_length_c   9.47725131
_cell_angle_alpha   89.99999761
_cell_angle_beta   89.99983417
_cell_angle_gamma   90.00001831
_symmetry_Int_Tables_number   1
_chemical_formula_structural   Li67Fe72(PO4)72
_chemical_formula_sum   'Li134 Fe144 P144 O576'
_cell_volume   1225.02975762
_cell_formula_units_Z   2
loop_
 _symmetry_equiv_pos_site_id
 _symmetry_equiv_pos_as_xyz
  1  'x, y, z'
loop_
 _atom_site_type_symbol
 _atom_site_label
 _atom_site_symmetry_multiplicity
 _atom_site_fract_x
 _atom_site_fract_y
 _atom_site_fract_z
 _atom_site_occupancy
  Li  Li0  1  -0.00055104  0.49911758  0.50075092  1
  Li  Li1  1  0.50001874  0.24997396  0.75003317  1
  Li  Li2  1  0.50000596  0.74998641  0.25001667  1
  Li  Li3  1  0.00061351  0.00096464  0.49915848  1
  Li  Li4  1  -0.00057260  0.49908745  0.00077190  1
  Li  Li5  1  0.00074939  0.00216884  -0.00176479  1
  Li  Li6  1  -0.00070710  0.49788458  0.50169949  1
  Li  Li7  1  0.50001411  0.24997678  0.25002200  1
  Li  Li8  1  0.50000885  0.74998218  0.25002181  1
  Li  Li9  1  0.50002084  0.74997654  0.75003230  1
  Li  Li10  1  0.50286102  0.00410702  0.25932469  1
  Li  Li11  1  0.50540095  0.01684955  0.76032380  1
  Li  Li12  1  0.49710051  0.49585454  0.24060927  1
  Li  Li13  1  0.49458659  0.48312692  0.73964957  1
  Li  Li14  1  0.00149468  0.24941177  -0.00143659  1
  Li  Li15  1  -0.00151338  0.25062970  0.50147764  1
  Li  Li16  1  0.00090279  0.74973119  -0.00040290  1
  Li  Li17  1  -0.00098231  0.75034597  0.50051016  1
  Li  Li18  1  0.00293882  0.00199564  -0.00213981  1
  Li  Li19  1  0.50540427  0.01685951  0.26032939  1
  Li  Li20  1  0.50284825  0.00409535  0.75931373  1
  Li  Li21  1  0.49458452  0.48312855  0.23966412  1
  Li  Li22  1  0.49710069  0.49584813  0.74060886  1
  Li  Li23  1  -0.00150709  0.25061873  0.00146512  1
  Li  Li24  1  -0.00112955  0.00079792  0.50076160  1
  Li  Li25  1  -0.00339060  0.49778391  0.00303965  1
  Li  Li26  1  0.00052053  0.49823104  0.50057016  1
  Li  Li27  1  0.51172173  0.23364510  0.30447221  1
  Li  Li28  1  0.50049582  0.74932101  0.25069867  1
  Li  Li29  1  0.00148482  0.24942437  0.49857497  1
  Li  Li30  1  -0.00095698  0.75031851  0.00049204  1
  Li  Li31  1  0.00075751  0.74984770  0.49972339  1
  Li  Li32  1  0.50496257  0.01064408  0.25603946  1
  Li  Li33  1  0.50593254  0.01180544  0.76864759  1
  Li  Li34  1  0.49385628  0.48706855  0.22698100  1
  Li  Li35  1  0.49441744  0.49496062  0.74256113  1
  Li  Li36  1  -0.00139336  0.24991845  -0.00022288  1
  Li  Li37  1  0.00095168  0.24950848  0.49869449  1
  Li  Li38  1  0.50030384  0.74979505  0.75068651  1
  Li  Li39  1  0.50391079  0.00142578  0.25727045  1
  Li  Li40  1  0.50611164  0.01578924  0.76810600  1
  Li  Li41  1  0.49294555  0.49021002  0.23418723  1
  Li  Li42  1  0.49479291  0.48661245  0.74231166  1
  Li  Li43  1  0.00161503  0.24964357  -0.00028495  1
  Li  Li44  1  -0.00105961  0.25065418  0.50166322  1
  Li  Li45  1  0.00050533  0.74958659  -0.00051389  1
  Li  Li46  1  -0.00059818  0.75008637  0.50025862  1
  Li  Li47  1  0.00071815  0.24976100  0.49917575  1
  Li  Li48  1  -0.00019005  0.75019082  0.00012827  1
  Li  Li49  1  0.00003667  0.75014008  0.50023480  1
  Li  Li50  1  0.00305201  0.00249129  -0.00331692  1
  Li  Li51  1  -0.00183922  0.00146134  0.50034961  1
  Li  Li52  1  -0.00300248  0.49803582  0.00199023  1
  Li  Li53  1  0.00287947  0.49952521  0.49816297  1
  Li  Li54  1  0.49314109  0.26935333  0.63267557  1
  Li  Li55  1  0.49967921  0.75040458  0.24901576  1
  Li  Li56  1  0.49991594  0.74995150  0.74994115  1
  Li  Li57  1  -0.00072081  0.49786972  0.00171914  1
  Li  Li58  1  -0.00265515  0.49800844  0.00172784  1
  Li  Li59  1  0.00387647  0.49944986  0.49797067  1
  Li  Li60  1  0.49288832  0.26761617  0.56678079  1
  Li  Li61  1  0.49956180  0.75050217  0.24886691  1
  Li  Li62  1  0.50031912  0.74935338  0.75082178  1
  Li  Li63  1  0.50542552  0.01140418  0.25786860  1
  Li  Li64  1  0.50468671  0.01312441  0.77139631  1
  Li  Li65  1  0.49497294  0.48808055  0.22520333  1
  Li  Li66  1  0.49392353  0.48858277  0.73978250  1
  Li  Li67  1  -0.00070451  0.24971844  -0.00022989  1
  Li  Li68  1  0.49971238  0.75016851  0.24936087  1
  Li  Li69  1  0.49953493  0.75063275  0.74936335  1
  Li  Li70  1  0.49967762  0.75051420  0.24928697  1
  Li  Li71  1  0.50046247  0.74945624  0.75119243  1
  Li  Li72  1  0.50605997  0.01139035  0.26018731  1
  Li  Li73  1  0.50502044  0.01190372  0.77477649  1
  Li  Li74  1  0.49531800  0.48686123  0.22857818  1
  Li  Li75  1  0.49456976  0.48856504  0.74210447  1
  Li  Li76  1  0.00066743  0.25033463  0.00028173  1
  Li  Li77  1  -0.00078143  0.25032149  0.50090848  1
  Li  Li78  1  0.00003722  0.74994914  0.00003455  1
  Li  Li79  1  -0.00020471  0.75003994  0.50001075  1
  Li  Li80  1  0.50520728  0.01337440  0.25767191  1
  Li  Li81  1  0.50705744  0.00976942  0.76578659  1
  Li  Li82  1  0.49389227  0.48418433  0.23187945  1
  Li  Li83  1  0.49607555  0.49854576  0.74269044  1
  Li  Li84  1  -0.00164307  0.25039760  0.00033204  1
  Li  Li85  1  0.00099482  0.24943137  0.49842855  1
  Li  Li86  1  -0.00058284  0.75049423  0.00065502  1
  Li  Li87  1  0.00040326  0.75011417  0.50001961  1
  Li  Li88  1  0.00059958  0.00094999  -0.00082011  1
  Li  Li89  1  0.00076760  0.00219814  0.49821059  1
  Li  Li90  1  0.49454351  0.48602141  0.73942610  1
  Li  Li91  1  -0.00001628  0.25002448  0.00002292  1
  Li  Li92  1  -0.00003121  0.25003976  0.50004122  1
  Li  Li93  1  -0.00002830  0.75003222  0.00005243  1
  Li  Li94  1  -0.00007737  0.75008506  0.50011672  1
  Li  Li95  1  0.00270336  0.00244443  -0.00260029  1
  Li  Li96  1  -0.00325601  0.00088939  0.50129902  1
  Li  Li97  1  -0.00034954  0.75033417  0.00036698  1
  Li  Li98  1  0.00024075  0.75019244  0.50021961  1
  Li  Li99  1  0.00343083  0.00226997  -0.00311668  1
  Li  Li100  1  -0.00041635  0.00190233  0.49927085  1
  Li  Li101  1  -0.00287215  0.49806361  0.00206081  1
  Li  Li102  1  0.00123761  0.49934167  0.49904135  1
  Li  Li103  1  0.48828733  0.26633580  0.69559690  1
  Li  Li104  1  0.50010548  0.75000161  0.25011684  1
  Li  Li105  1  0.50034283  0.74955324  0.75104045  1
  Li  Li106  1  0.50556193  0.00501219  0.25740727  1
  Li  Li107  1  0.50614486  0.01289875  0.77300232  1
  Li  Li108  1  0.49407079  0.48817810  0.23133421  1
  Li  Li109  1  0.00286817  0.00207443  -0.00185588  1
  Li  Li110  1  -0.00378637  0.00067322  0.50187833  1
  Li  Li111  1  -0.00263005  0.49761515  0.00252358  1
  Li  Li112  1  0.00338073  0.49925896  0.49852680  1
  Li  Li113  1  0.50713534  0.23239058  0.43327317  1
  Li  Li114  1  0.00249320  0.00225970  -0.00195370  1
  Li  Li115  1  -0.00405440  0.00063853  0.50172818  1
  Li  Li116  1  -0.00235360  0.49780371  0.00186014  1
  Li  Li117  1  0.00416620  0.49949003  0.49812210  1
  Li  Li118  1  0.50000777  0.24999590  0.49998149  1
  Li  Li119  1  0.49959457  0.75070100  0.24880657  1
  Li  Li120  1  0.50042959  0.74925960  0.75124578  1
  Li  Li121  1  0.50544716  0.01394564  0.26054580  1
  Li  Li122  1  0.50375388  0.01267865  0.77354657  1
  Li  Li123  1  0.49624833  0.48730612  0.22643703  1
  Li  Li124  1  0.00325109  0.00205735  -0.00207798  1
  Li  Li125  1  0.49503161  0.48933265  0.74394045  1
  Li  Li126  1  0.00135692  0.25013324  0.00027841  1
  Li  Li127  1  -0.00101222  0.25057826  0.50138372  1
  Li  Li128  1  0.00021358  0.74979227  -0.00019537  1
  Li  Li129  1  -0.00041625  0.74999049  0.50002741  1
  Li  Li130  1  -0.00277730  0.00060034  0.50167187  1
  Li  Li131  1  -0.00300899  0.49756445  0.00324341  1
  Li  Li132  1  0.00194969  0.49867549  0.49949289  1
  Li  Li133  1  0.50684281  0.23062701  0.36741097  1
  Fe  Fe134  1  0.28359451  0.62320690  0.48343972  1
  Fe  Fe135  1  0.28381151  0.62317753  0.98133200  1
  Fe  Fe136  1  0.21793340  0.37515290  0.23303334  1
  Fe  Fe137  1  0.22159299  0.37461781  0.73731349  1
  Fe  Fe138  1  0.21792511  0.87453316  0.23274204  1
  Fe  Fe139  1  0.77840098  0.12538710  0.76269188  1
  Fe  Fe140  1  0.78207523  0.62546658  0.26726014  1
  Fe  Fe141  1  0.78191059  0.62516880  0.76685623  1
  Fe  Fe142  1  0.78206416  0.12485765  0.26696146  1
  Fe  Fe143  1  0.71621758  0.37467310  0.01558300  1
  Fe  Fe144  1  0.28350595  0.62192077  0.98158404  1
  Fe  Fe145  1  0.21758137  0.37536968  0.23210737  1
  Fe  Fe146  1  0.28024575  0.63045229  0.48456808  1
  Fe  Fe147  1  0.28355254  0.62075901  0.98226084  1
  Fe  Fe148  1  0.21684997  0.37543124  0.23021311  1
  Fe  Fe149  1  0.21917945  0.37531948  0.73931079  1
  Fe  Fe150  1  0.21796955  0.87520396  0.23297290  1
  Fe  Fe151  1  0.21870183  0.87471167  0.73261957  1
  Fe  Fe152  1  0.78069524  0.12496042  0.26448545  1
  Fe  Fe153  1  0.78436241  0.12504551  0.77538301  1
  Fe  Fe154  1  0.71864616  0.87028153  0.51829742  1
  Fe  Fe155  1  0.28246925  0.12439755  0.48614662  1
  Fe  Fe156  1  0.28589487  0.12817246  0.98367423  1
  Fe  Fe157  1  0.21960767  0.37497175  0.73900714  1
  Fe  Fe158  1  0.21796424  0.87481154  0.23273732  1
  Fe  Fe159  1  0.21832179  0.87494436  0.73295977  1
  Fe  Fe160  1  0.78256558  0.12379906  0.26452141  1
  Fe  Fe161  1  0.78320532  0.12500651  0.77357444  1
  Fe  Fe162  1  0.78152963  0.62533671  0.26753082  1
  Fe  Fe163  1  0.78151765  0.62549819  0.76763312  1
  Fe  Fe164  1  0.28491083  0.12562773  0.47956070  1
  Fe  Fe165  1  0.28583301  0.12705908  0.98457780  1
  Fe  Fe166  1  0.28135050  0.62970468  0.48170086  1
  Fe  Fe167  1  0.28347422  0.62058807  0.98213988  1
  Fe  Fe168  1  0.21679488  0.37499264  0.22645294  1
  Fe  Fe169  1  0.21744704  0.37621248  0.73545603  1
  Fe  Fe170  1  0.21848311  0.87449839  0.23237949  1
  Fe  Fe171  1  0.21847633  0.87466787  0.73247824  1
  Fe  Fe172  1  0.78038946  0.12503801  0.26098469  1
  Fe  Fe173  1  0.78161523  0.62560790  0.26746446  1
  Fe  Fe174  1  0.78179060  0.62522103  0.76766206  1
  Fe  Fe175  1  0.71376374  0.37200356  0.01557816  1
  Fe  Fe176  1  0.71584189  0.37549473  0.51900427  1
  Fe  Fe177  1  0.71598167  0.88007433  0.01799962  1
  Fe  Fe178  1  0.71975797  0.86723774  0.51644330  1
  Fe  Fe179  1  0.28131087  0.12321115  0.48574779  1
  Fe  Fe180  1  0.28625863  0.12852981  0.98439439  1
  Fe  Fe181  1  0.27991071  0.63228906  0.48478453  1
  Fe  Fe182  1  0.28382960  0.61998730  0.98239967  1
  Fe  Fe183  1  0.22159569  0.37461526  0.23731409  1
  Fe  Fe184  1  0.21793017  0.37515359  0.73303449  1
  Fe  Fe185  1  0.21808953  0.87482205  0.23315456  1
  Fe  Fe186  1  0.21793370  0.87453722  0.73273727  1
  Fe  Fe187  1  0.71417171  0.37293301  0.01542012  1
  Fe  Fe188  1  0.71509753  0.37437386  0.52043123  1
  Fe  Fe189  1  0.71652240  0.87941713  0.01786304  1
  Fe  Fe190  1  0.71597513  0.37263707  0.51821003  1
  Fe  Fe191  1  0.71640154  0.87679397  0.01656401  1
  Fe  Fe192  1  0.71618932  0.87681370  0.51866180  1
  Fe  Fe193  1  0.28379267  0.12532001  0.48441682  1
  Fe  Fe194  1  0.28403601  0.12736128  0.98178005  1
  Fe  Fe195  1  0.21809681  0.87483279  0.73315049  1
  Fe  Fe196  1  0.78426628  0.12348479  0.26694208  1
  Fe  Fe197  1  0.78241894  0.12463090  0.76788090  1
  Fe  Fe198  1  0.78168128  0.62505961  0.26705309  1
  Fe  Fe199  1  0.78203582  0.62517890  0.76727190  1
  Fe  Fe200  1  0.71415295  0.37192351  0.01558582  1
  Fe  Fe201  1  0.71543787  0.37458207  0.51371427  1
  Fe  Fe202  1  0.71648909  0.87807014  0.01841701  1
  Fe  Fe203  1  0.71831720  0.87293095  0.51567413  1
  Fe  Fe204  1  0.28504348  0.12639676  0.48002097  1
  Fe  Fe205  1  0.28591903  0.12650652  0.98321743  1
  Fe  Fe206  1  0.28257168  0.62661285  0.48094116  1
  Fe  Fe207  1  0.21680962  0.37473830  0.22819020  1
  Fe  Fe208  1  0.21942611  0.37527092  0.73790129  1
  Fe  Fe209  1  0.21800925  0.87518525  0.23281036  1
  Fe  Fe210  1  0.21871644  0.87437433  0.73252488  1
  Fe  Fe211  1  0.77923933  0.12563486  0.26438516  1
  Fe  Fe212  1  0.78362923  0.12578673  0.77388260  1
  Fe  Fe213  1  0.78153249  0.62590363  0.26741677  1
  Fe  Fe214  1  0.78211014  0.62493118  0.76752594  1
  Fe  Fe215  1  0.71364736  0.37137998  0.01565234  1
  Fe  Fe216  1  0.71837776  0.37709216  0.51658001  1
  Fe  Fe217  1  0.78191645  0.62516850  0.26684697  1
  Fe  Fe218  1  0.78207374  0.62545880  0.76726770  1
  Fe  Fe219  1  0.71597095  0.37263801  0.01822174  1
  Fe  Fe220  1  0.71624142  0.37467073  0.51558058  1
  Fe  Fe221  1  0.71618132  0.87681012  0.01867608  1
  Fe  Fe222  1  0.71639019  0.87680329  0.51654938  1
  Fe  Fe223  1  0.28402962  0.12735202  0.48177820  1
  Fe  Fe224  1  0.28379405  0.12532313  0.98442042  1
  Fe  Fe225  1  0.28380720  0.62316852  0.48131497  1
  Fe  Fe226  1  0.28358984  0.62319747  0.98344956  1
  Fe  Fe227  1  0.78083264  0.12592731  0.76993957  1
  Fe  Fe228  1  0.78151596  0.62524311  0.26757416  1
  Fe  Fe229  1  0.78153374  0.62538850  0.76746467  1
  Fe  Fe230  1  0.71408239  0.37348930  0.01677771  1
  Fe  Fe231  1  0.71496403  0.37360060  0.51997804  1
  Fe  Fe232  1  0.71672379  0.87843965  0.01723385  1
  Fe  Fe233  1  0.71742602  0.87337606  0.51905893  1
  Fe  Fe234  1  0.28456384  0.12541510  0.48629300  1
  Fe  Fe235  1  0.28584051  0.12807349  0.98440053  1
  Fe  Fe236  1  0.28167170  0.62706798  0.48432962  1
  Fe  Fe237  1  0.28327330  0.62155677  0.98277154  1
  Fe  Fe238  1  0.21916276  0.37407485  0.23006536  1
  Fe  Fe239  1  0.21572142  0.37652281  0.73306771  1
  Fe  Fe240  1  0.21846418  0.87460724  0.23254991  1
  Fe  Fe241  1  0.21849110  0.87476094  0.73243733  1
  Fe  Fe242  1  0.77840219  0.12539295  0.26268911  1
  Fe  Fe243  1  0.78206390  0.12486172  0.76696773  1
  Fe  Fe244  1  0.28023523  0.63275235  0.48355687  1
  Fe  Fe245  1  0.28401930  0.61993236  0.98200207  1
  Fe  Fe246  1  0.21563222  0.37495696  0.22461533  1
  Fe  Fe247  1  0.21929034  0.37504632  0.73548901  1
  Fe  Fe248  1  0.21820763  0.87477277  0.23235362  1
  Fe  Fe249  1  0.21839040  0.87439779  0.73254563  1
  Fe  Fe250  1  0.78082049  0.12469205  0.26068057  1
  Fe  Fe251  1  0.78314938  0.12456637  0.76977747  1
  Fe  Fe252  1  0.78130675  0.62528741  0.26739060  1
  Fe  Fe253  1  0.78202982  0.62479192  0.76704044  1
  Fe  Fe254  1  0.71409592  0.37182740  0.01629847  1
  Fe  Fe255  1  0.71753128  0.37559707  0.51382739  1
  Fe  Fe256  1  0.71644675  0.87922161  0.01773505  1
  Fe  Fe257  1  0.71974113  0.86954534  0.51543514  1
  Fe  Fe258  1  0.71578942  0.88034448  0.01770206  1
  Fe  Fe259  1  0.72031151  0.86620085  0.51520284  1
  Fe  Fe260  1  0.28163229  0.12290554  0.48341231  1
  Fe  Fe261  1  0.28633429  0.12861728  0.98432208  1
  Fe  Fe262  1  0.27967900  0.63379620  0.48479948  1
  Fe  Fe263  1  0.28421421  0.61965618  0.98229848  1
  Fe  Fe264  1  0.21636615  0.37421512  0.22611770  1
  Fe  Fe265  1  0.22075578  0.37437026  0.73559281  1
  Fe  Fe266  1  0.21788711  0.87506148  0.23248947  1
  Fe  Fe267  1  0.21847467  0.87410110  0.73259357  1
  Fe  Fe268  1  0.78057482  0.12473668  0.26207813  1
  Fe  Fe269  1  0.78319118  0.12526127  0.77180115  1
  Fe  Fe270  1  0.78129379  0.62562595  0.26748332  1
  Fe  Fe271  1  0.78199041  0.62480509  0.76720627  1
  Fe  Fe272  1  0.71373897  0.37147194  0.01559147  1
  Fe  Fe273  1  0.71870165  0.37679098  0.51424084  1
  Fe  Fe274  1  0.71617175  0.88000152  0.01759814  1
  Fe  Fe275  1  0.72007528  0.86771342  0.51522053  1
  Fe  Fe276  1  0.28417388  0.12450028  0.48099402  1
  Fe  Fe277  1  0.28622920  0.12798716  0.98441645  1
  P  P278  1  0.09226625  0.12470325  0.20298301  1
  P  P279  1  0.09145757  0.12500087  0.70258221  1
  P  P280  1  0.09207543  0.62487097  0.20186225  1
  P  P281  1  0.09159835  0.62456080  0.70186419  1
  P  P282  1  0.40565763  0.37800052  0.44959410  1
  P  P283  1  0.40619162  0.37628313  0.94680448  1
  P  P284  1  0.40758192  0.87401092  0.45114598  1
  P  P285  1  0.40633891  0.87281090  0.95112541  1
  P  P286  1  0.59454483  0.12269333  0.04423617  1
  P  P287  1  0.59799812  0.11802145  0.54579459  1
  P  P288  1  0.59336206  0.62598021  0.04804108  1
  P  P289  1  0.59323054  0.62577294  0.54827472  1
  P  P290  1  0.90792453  0.37507258  0.29649421  1
  P  P291  1  0.90698884  0.37556508  0.79595273  1
  P  P292  1  0.90935599  0.87504802  0.29791608  1
  P  P293  1  0.90884275  0.87509878  0.29808408  1
  P  P294  1  0.90994318  0.87464524  0.79935169  1
  P  P295  1  0.40698770  0.37561240  0.95661589  1
  P  P296  1  0.40641122  0.87349728  0.45167095  1
  P  P297  1  0.40711214  0.87440605  0.95161024  1
  P  P298  1  0.59434155  0.12199325  0.05040370  1
  P  P299  1  0.59301048  0.12439163  0.54337232  1
  P  P300  1  0.59287970  0.62559283  0.54839724  1
  P  P301  1  0.90773317  0.37529388  0.29701364  1
  P  P302  1  0.90854867  0.37498995  0.79742144  1
  P  P303  1  0.90792446  0.87512468  0.29814059  1
  P  P304  1  0.90840598  0.87543375  0.79814190  1
  P  P305  1  0.40717563  0.87519186  0.45137806  1
  P  P306  1  0.40582744  0.87292737  0.95244126  1
  P  P307  1  0.09015401  0.62516407  0.70255316  1
  P  P308  1  0.39818473  0.38749294  0.45562822  1
  P  P309  1  0.40479715  0.37726438  0.95484045  1
  P  P310  1  0.59770188  0.12019763  0.55224745  1
  P  P311  1  0.59365669  0.62718856  0.04888079  1
  P  P312  1  0.59241747  0.62598841  0.54885795  1
  P  P313  1  0.09092496  0.62479683  0.20100374  1
  P  P314  1  0.09154970  0.62502862  0.70154297  1
  P  P315  1  0.40231008  0.37978935  0.44776391  1
  P  P316  1  0.90564313  0.37499443  0.29731929  1
  P  P317  1  0.90803572  0.37608972  0.79702804  1
  P  P318  1  0.59409376  0.12367830  0.05081902  1
  P  P319  1  0.09198062  0.12403257  0.20407131  1
  P  P320  1  0.59301234  0.12439314  0.04336684  1
  P  P321  1  0.59434428  0.12199050  0.55040491  1
  P  P322  1  0.59288494  0.62559618  0.04839855  1
  P  P323  1  0.59357925  0.62650619  0.54833889  1
  P  P324  1  0.90854396  0.37499450  0.29741881  1
  P  P325  1  0.90774034  0.37528795  0.79701375  1
  P  P326  1  0.90839885  0.87544052  0.29813117  1
  P  P327  1  0.90792777  0.87512125  0.79814503  1
  P  P328  1  0.09115731  0.62490153  0.70191602  1
  P  P329  1  0.39767838  0.38439460  0.44352260  1
  P  P330  1  0.40587300  0.37630515  0.94915731  1
  P  P331  1  0.40752235  0.87400923  0.45104058  1
  P  P332  1  0.40608936  0.87278342  0.95118384  1
  P  P333  1  0.59521323  0.12272592  0.04513822  1
  P  P334  1  0.60181643  0.11250628  0.54435348  1
  P  P335  1  0.59416905  0.62706909  0.04756561  1
  P  P336  1  0.09283114  0.12490222  0.70383388  1
  P  P337  1  0.08988749  0.62569126  0.20112040  1
  P  P338  1  0.09041746  0.62492149  0.70257731  1
  P  P339  1  0.39555345  0.39132547  0.45212737  1
  P  P340  1  0.40478119  0.37707351  0.95343206  1
  P  P341  1  0.40747728  0.87528971  0.45084837  1
  P  P342  1  0.40538110  0.87251891  0.95239114  1
  P  P343  1  0.59430009  0.12355581  0.04878922  1
  P  P344  1  0.60577869  0.11000625  0.55768560  1
  P  P345  1  0.59432536  0.62735201  0.04831316  1
  P  P346  1  0.91011679  0.87443227  0.79887804  1
  P  P347  1  0.09175000  0.12379581  0.20349077  1
  P  P348  1  0.09383764  0.12494877  0.70303067  1
  P  P349  1  0.08983479  0.62551694  0.20092885  1
  P  P350  1  0.09097570  0.62461059  0.70236511  1
  P  P351  1  0.39422509  0.38998170  0.44229864  1
  P  P352  1  0.40566650  0.37642893  0.95119194  1
  P  P353  1  0.40747912  0.87443021  0.45086498  1
  P  P354  1  0.40567354  0.87264879  0.95169311  1
  P  P355  1  0.59522835  0.12289883  0.04655688  1
  P  P356  1  0.90702759  0.37575708  0.79558715  1
  P  P357  1  0.90984429  0.87483615  0.29745126  1
  P  P358  1  0.90990847  0.87410987  0.79882577  1
  P  P359  1  0.09219674  0.12442650  0.20231263  1
  P  P360  1  0.09361627  0.12499904  0.70261165  1
  P  P361  1  0.09096691  0.62542303  0.20140396  1
  P  P362  1  0.09064126  0.62495194  0.70208492  1
  P  P363  1  0.40199955  0.38197908  0.45420076  1
  P  P364  1  0.40545566  0.37729783  0.95574917  1
  P  P365  1  0.40676575  0.87422454  0.45172856  1
  P  P366  1  0.40663470  0.87401794  0.95196679  1
  P  P367  1  0.59380210  0.12370968  0.05317834  1
  P  P368  1  0.60232475  0.11559206  0.55648481  1
  P  P369  1  0.59390763  0.62721737  0.04882430  1
  P  P370  1  0.59247318  0.62598867  0.54896481  1
  P  P371  1  0.59282369  0.62480847  0.54862722  1
  P  P372  1  0.90736949  0.37506647  0.29650998  1
  P  P373  1  0.60446019  0.10869650  0.54783517  1
  P  P374  1  0.59461394  0.62747896  0.04761589  1
  P  P375  1  0.59252173  0.62470840  0.54915582  1
  P  P376  1  0.90716854  0.37509527  0.29615559  1
  P  P377  1  0.90801419  0.37596154  0.79593080  1
  P  P378  1  0.90958058  0.87507877  0.29742808  1
  P  P379  1  0.91011185  0.87429082  0.79888625  1
  P  P380  1  0.09196808  0.12390256  0.20296589  1
  P  P381  1  0.09435858  0.12500468  0.70267791  1
  P  P382  1  0.09006029  0.62534467  0.20066148  1
  P  P383  1  0.40524021  0.37679244  0.95289927  1
  P  P384  1  0.40758749  0.87486717  0.45066687  1
  P  P385  1  0.40531076  0.87255408  0.95212597  1
  P  P386  1  0.59474813  0.12319716  0.04707734  1
  P  P387  1  0.60565317  0.10736644  0.55460974  1
  P  P388  1  0.59468712  0.62744766  0.04788130  1
  P  P389  1  0.59240448  0.62512916  0.54933979  1
  P  P390  1  0.90709591  0.37518501  0.29633111  1
  P  P391  1  0.90872329  0.37616859  0.79611257  1
  P  P392  1  0.90898149  0.87560803  0.29743218  1
  P  P393  1  0.59251650  0.62556591  0.54914130  1
  P  P394  1  0.90616424  0.37505008  0.29696829  1
  P  P395  1  0.90825177  0.37619619  0.79650814  1
  P  P396  1  0.90902313  0.87538854  0.29763695  1
  P  P397  1  0.91016886  0.87447548  0.79908949  1
  P  P398  1  0.09127946  0.12382625  0.20389050  1
  P  P399  1  0.09290540  0.12481318  0.70366175  1
  P  P400  1  0.08988407  0.62555199  0.20113804  1
  P  P401  1  0.09101616  0.62439162  0.70256992  1
  P  P402  1  0.39435262  0.39262639  0.44537778  1
  P  P403  1  0.90903052  0.87455471  0.79860309  1
  P  P404  1  0.09145508  0.12499876  0.20257463  1
  P  P405  1  0.09226572  0.12470427  0.70298737  1
  P  P406  1  0.09160177  0.62455888  0.20186638  1
  P  P407  1  0.09207498  0.62487624  0.70185203  1
  P  P408  1  0.40700403  0.37559986  0.45659595  1
  P  P409  1  0.40565826  0.37800365  0.94958444  1
  P  P410  1  0.40711057  0.87440843  0.45161277  1
  P  P411  1  0.40641348  0.87349467  0.95166995  1
  P  P412  1  0.90638340  0.37499590  0.29738677  1
  P  P413  1  0.90780465  0.37556855  0.79768225  1
  P  P414  1  0.90845336  0.87497304  0.29845973  1
  P  P415  1  0.90907474  0.87518143  0.79900500  1
  P  P416  1  0.09296034  0.12424014  0.20442016  1
  P  P417  1  0.09265708  0.12493164  0.70347126  1
  P  P418  1  0.09009140  0.62587133  0.20117776  1
  P  P419  1  0.59358451  0.62650837  0.04834194  1
  P  P420  1  0.09300772  0.12442458  0.20403942  1
  P  P421  1  0.09208096  0.12492627  0.70350553  1
  O  O422  1  0.09816753  0.12391994  0.36510277  1
  O  O423  1  0.09711863  0.12436816  0.86486580  1
  O  O424  1  0.39783731  0.87063403  0.61307073  1
  O  O425  1  0.16093709  0.02553039  0.13567634  1
  O  O426  1  0.15957101  0.02485718  0.63681752  1
  O  O427  1  0.15957145  0.52474080  0.13527945  1
  O  O428  1  0.15910278  0.52457824  0.63546247  1
  O  O429  1  0.90138821  0.87489098  0.13613360  1
  O  O430  1  0.90222134  0.87498570  0.63596545  1
  O  O431  1  0.04782816  0.37504497  0.35849629  1
  O  O432  1  0.04854543  0.37516389  0.85864781  1
  O  O433  1  0.04834002  0.87457984  0.35871137  1
  O  O434  1  0.84198376  0.77421922  0.36292473  1
  O  O435  1  0.83931567  0.77591345  0.86515224  1
  O  O436  1  0.83967878  0.47505498  0.36340495  1
  O  O437  1  0.84018923  0.47543363  0.86335975  1
  O  O438  1  0.84125238  0.97365592  0.36596508  1
  O  O439  1  0.84444769  0.97527189  0.86534846  1
  O  O440  1  0.90156795  0.37574957  0.13396516  1
  O  O441  1  0.90234685  0.37593517  0.63382734  1
  O  O442  1  0.90194318  0.87518885  0.13559542  1
  O  O443  1  0.90502170  0.87256774  0.63664587  1
  O  O444  1  0.32840646  0.27981700  0.89430124  1
  O  O445  1  0.89968788  0.37611252  0.13507979  1
  O  O446  1  0.90287924  0.37583525  0.63543763  1
  O  O447  1  0.90165791  0.87527973  0.13653661  1
  O  O448  1  0.09861811  0.62507934  0.36386808  1
  O  O449  1  0.09777557  0.62498961  0.86404100  1
  O  O450  1  0.83922442  0.27507015  0.36184853  1
  O  O451  1  0.83946116  0.27543315  0.86272195  1
  O  O452  1  0.83936679  0.77561503  0.36477504  1
  O  O453  1  0.66063105  0.52549372  0.61356891  1
  O  O454  1  0.16145147  0.22475125  0.13963974  1
  O  O455  1  0.16122346  0.22450317  0.63830297  1
  O  O456  1  0.16049925  0.72437983  0.13469215  1
  O  O457  1  0.15848766  0.72524082  0.63600581  1
  O  O458  1  0.95216921  0.12495889  0.64150217  1
  O  O459  1  0.95115412  0.62539349  0.14131439  1
  O  O460  1  0.95165564  0.62543082  0.64128373  1
  O  O461  1  0.45316438  0.11899287  0.09996151  1
  O  O462  1  0.45309596  0.12495166  0.60860938  1
  O  O463  1  0.45252429  0.62565900  0.10874798  1
  O  O464  1  0.45268928  0.62529246  0.60782147  1
  O  O465  1  0.54687423  0.38095602  0.40005319  1
  O  O466  1  0.54691059  0.37504247  0.89139039  1
  O  O467  1  0.54746674  0.87433801  0.39124739  1
  O  O468  1  0.33886672  0.77432552  0.38325329  1
  O  O469  1  0.33876206  0.77295948  0.88367445  1
  O  O470  1  0.33668250  0.48467560  0.37137645  1
  O  O471  1  0.33767285  0.47717769  0.88054651  1
  O  O472  1  0.33942242  0.97441564  0.38594965  1
  O  O473  1  0.33819338  0.97319892  0.88573244  1
  O  O474  1  0.90250018  0.37592474  0.63443121  1
  O  O475  1  0.90185141  0.87559576  0.13577146  1
  O  O476  1  0.90480094  0.87309421  0.63685505  1
  O  O477  1  0.04700036  0.37428267  0.35627002  1
  O  O478  1  0.04818761  0.37567807  0.85799516  1
  O  O479  1  0.04940605  0.87524688  0.35788315  1
  O  O480  1  0.05040226  0.87364147  0.85981946  1
  O  O481  1  0.39172711  0.38639232  0.11443640  1
  O  O482  1  0.38744045  0.39506208  0.61301707  1
  O  O483  1  0.39777773  0.87004868  0.11405976  1
  O  O484  1  0.84189908  0.97383115  0.36553330  1
  O  O485  1  0.84383641  0.97507454  0.86484201  1
  O  O486  1  0.90144575  0.37583789  0.13430712  1
  O  O487  1  0.90186784  0.37603859  0.63348392  1
  O  O488  1  0.90223490  0.87488308  0.13556963  1
  O  O489  1  0.33794805  0.97422138  0.38646316  1
  O  O490  1  0.33887314  0.97556361  0.38613399  1
  O  O491  1  0.33785999  0.97346186  0.88745799  1
  O  O492  1  0.95304529  0.12473378  0.14252952  1
  O  O493  1  0.95222748  0.12498200  0.64360895  1
  O  O494  1  0.94985326  0.62631546  0.14028409  1
  O  O495  1  0.94979398  0.62552330  0.64212354  1
  O  O496  1  0.45344511  0.12000119  0.10726643  1
  O  O497  1  0.45767914  0.12045684  0.59741417  1
  O  O498  1  0.45293036  0.62609028  0.10798294  1
  O  O499  1  0.15989604  0.02435371  0.13654724  1
  O  O500  1  0.16090033  0.02501762  0.63566744  1
  O  O501  1  0.15531932  0.52463057  0.13366779  1
  O  O502  1  0.15999855  0.52627224  0.63384053  1
  O  O503  1  0.67158299  0.22016917  0.10567895  1
  O  O504  1  0.66837350  0.21516656  0.60215840  1
  O  O505  1  0.66145590  0.72708474  0.11596774  1
  O  O506  1  0.66078788  0.72452789  0.61703947  1
  O  O507  1  0.32701643  0.28494070  0.39431760  1
  O  O508  1  0.32916537  0.27918525  0.89171646  1
  O  O509  1  0.90391390  0.87376349  0.63716628  1
  O  O510  1  0.04655818  0.37410977  0.35652108  1
  O  O511  1  0.04773228  0.37572242  0.85919914  1
  O  O512  1  0.04936545  0.87504121  0.35812295  1
  O  O513  1  0.05028215  0.87374002  0.85972374  1
  O  O514  1  0.39283492  0.38536109  0.11635789  1
  O  O515  1  0.38965247  0.39313041  0.61578168  1
  O  O516  1  0.39859594  0.87124876  0.11432682  1
  O  O517  1  0.33807712  0.47647495  0.89032861  1
  O  O518  1  0.33762315  0.97336958  0.38593734  1
  O  O519  1  0.83908856  0.47505662  0.86338195  1
  O  O520  1  0.33846042  0.97453411  0.88731986  1
  O  O521  1  0.95308471  0.12479889  0.14199674  1
  O  O522  1  0.95186036  0.12515489  0.64307515  1
  O  O523  1  0.95053530  0.62587645  0.14087595  1
  O  O524  1  0.95018869  0.62545331  0.64171958  1
  O  O525  1  0.45355797  0.12314262  0.11324284  1
  O  O526  1  0.45510304  0.11881740  0.60055785  1
  O  O527  1  0.45263626  0.62612321  0.10797929  1
  O  O528  1  0.45194017  0.62666950  0.60862968  1
  O  O529  1  0.54415979  0.37594388  0.39760691  1
  O  O530  1  0.04768197  0.37492358  0.35604453  1
  O  O531  1  0.04805613  0.37533027  0.85723556  1
  O  O532  1  0.04992600  0.87474052  0.35777484  1
  O  O533  1  0.05032090  0.87358817  0.85988560  1
  O  O534  1  0.39253600  0.38614993  0.11214187  1
  O  O535  1  0.38735739  0.39032745  0.60684455  1
  O  O536  1  0.39789039  0.86988552  0.11340447  1
  O  O537  1  0.39773992  0.87064073  0.61214626  1
  O  O538  1  0.15959460  0.02478450  0.63692044  1
  O  O539  1  0.15757014  0.52482799  0.13514273  1
  O  O540  1  0.15818143  0.52539468  0.63493987  1
  O  O541  1  0.66451589  0.22296832  0.11729440  1
  O  O542  1  0.67380468  0.21926832  0.60519163  1
  O  O543  1  0.66096616  0.72702774  0.11658844  1
  O  O544  1  0.66114128  0.72563387  0.61606725  1
  O  O545  1  0.33634296  0.27883925  0.39322571  1
  O  O546  1  0.32841419  0.27998842  0.89819894  1
  O  O547  1  0.33932199  0.77453393  0.38297601  1
  O  O548  1  0.60745381  0.11383592  0.88784405  1
  O  O549  1  0.60225751  0.62936924  0.38785716  1
  O  O550  1  0.60210471  0.63012403  0.88660139  1
  O  O551  1  0.66187280  0.02296295  0.11925002  1
  O  O552  1  0.66680938  0.01096029  0.62935689  1
  O  O553  1  0.66236109  0.52690092  0.11356248  1
  O  O554  1  0.66047159  0.52501716  0.61403988  1
  O  O555  1  0.16061790  0.22434264  0.13965913  1
  O  O556  1  0.16275879  0.22384994  0.63820366  1
  O  O557  1  0.16068332  0.72407810  0.13488735  1
  O  O558  1  0.33921368  0.77546256  0.38297652  1
  O  O559  1  0.33854284  0.77290983  0.88404321  1
  O  O560  1  0.33221315  0.48707346  0.37409642  1
  O  O561  1  0.33759840  0.47781937  0.88249739  1
  O  O562  1  0.33927300  0.97581795  0.38596866  1
  O  O563  1  0.15800935  0.72578360  0.63707987  1
  O  O564  1  0.09739229  0.12412640  0.36602632  1
  O  O565  1  0.09832544  0.12438255  0.86590202  1
  O  O566  1  0.09467579  0.62747193  0.36341404  1
  O  O567  1  0.09830920  0.62442347  0.86439887  1
  O  O568  1  0.83679653  0.27642942  0.36228802  1
  O  O569  1  0.84017819  0.27583391  0.86095545  1
  O  O570  1  0.84186794  0.77438843  0.36275577  1
  O  O571  1  0.83924550  0.77609538  0.86511987  1
  O  O572  1  0.83972494  0.47516225  0.36355070  1
  O  O573  1  0.15910213  0.52457545  0.13545803  1
  O  O574  1  0.15957881  0.52474615  0.63527567  1
  O  O575  1  0.67035025  0.22091669  0.10265836  1
  O  O576  1  0.66272441  0.22324719  0.61273270  1
  O  O577  1  0.66181928  0.72548637  0.11396792  1
  O  O578  1  0.66076285  0.72637096  0.61628703  1
  O  O579  1  0.32967091  0.27905606  0.39735040  1
  O  O580  1  0.33728161  0.27674321  0.88726184  1
  O  O581  1  0.33818572  0.77451854  0.38603962  1
  O  O582  1  0.83936276  0.77561317  0.86477115  1
  O  O583  1  0.84043962  0.47513999  0.36318643  1
  O  O584  1  0.83907420  0.47446074  0.86431903  1
  O  O585  1  0.84089937  0.97542308  0.36453679  1
  O  O586  1  0.84043268  0.97525898  0.86469733  1
  O  O587  1  0.90288543  0.37562750  0.13513652  1
  O  O588  1  0.90183492  0.37606066  0.63489461  1
  O  O589  1  0.90222847  0.87499549  0.13595480  1
  O  O590  1  0.90138351  0.87486819  0.63613375  1
  O  O591  1  0.04854126  0.37515900  0.35863942  1
  O  O592  1  0.54735996  0.87386991  0.89202637  1
  O  O593  1  0.60826668  0.11015406  0.38564844  1
  O  O594  1  0.90292719  0.87442201  0.63685662  1
  O  O595  1  0.04710889  0.37433721  0.35710094  1
  O  O596  1  0.04752906  0.37547194  0.85973447  1
  O  O597  1  0.04897870  0.87493191  0.35850420  1
  O  O598  1  0.04955443  0.87426588  0.85929185  1
  O  O599  1  0.39535484  0.38431193  0.11775205  1
  O  O600  1  0.39172641  0.38984963  0.61434656  1
  O  O601  1  0.39988734  0.87280468  0.11403144  1
  O  O602  1  0.54618731  0.38165813  0.90107264  1
  O  O603  1  0.54769428  0.87546221  0.39252892  1
  O  O604  1  0.15989178  0.22406077  0.13817341  1
  O  O605  1  0.16455815  0.22391792  0.63784558  1
  O  O606  1  0.16083581  0.72381064  0.13480569  1
  O  O607  1  0.33745429  0.97310596  0.88733119  1
  O  O608  1  0.95194354  0.12467203  0.14275821  1
  O  O609  1  0.95231713  0.12507124  0.64394979  1
  O  O610  1  0.94967835  0.62640987  0.14011869  1
  O  O611  1  0.95006966  0.62526609  0.64223462  1
  O  O612  1  0.45365063  0.11922846  0.10403121  1
  O  O613  1  0.45995910  0.12030645  0.59688553  1
  O  O614  1  0.45332493  0.62575986  0.10736529  1
  O  O615  1  0.45181571  0.62668652  0.60798667  1
  O  O616  1  0.54001360  0.38320952  0.40129825  1
  O  O617  1  0.45441192  0.11809784  0.10101456  1
  O  O618  1  0.46000457  0.11679446  0.59867880  1
  O  O619  1  0.45340651  0.62577726  0.10624754  1
  O  O620  1  0.45174183  0.62449206  0.60790595  1
  O  O621  1  0.54004327  0.37967794  0.40310070  1
  O  O622  1  0.54630271  0.38073648  0.89591705  1
  O  O623  1  0.33886194  0.77436112  0.38394514  1
  O  O624  1  0.33903171  0.77296903  0.88342266  1
  O  O625  1  0.33792014  0.47991525  0.37644365  1
  O  O626  1  0.84072221  0.47557231  0.86338969  1
  O  O627  1  0.83998232  0.97385546  0.36600510  1
  O  O628  1  0.84465803  0.97541164  0.86573123  1
  O  O629  1  0.90167369  0.37560205  0.13409285  1
  O  O630  1  0.90260547  0.37583793  0.63397944  1
  O  O631  1  0.90169198  0.87554829  0.13560406  1
  O  O632  1  0.90531710  0.87245737  0.63660148  1
  O  O633  1  0.04774754  0.37455696  0.35605647  1
  O  O634  1  0.04876365  0.37543549  0.85702799  1
  O  O635  1  0.04927897  0.87527456  0.35785267  1
  O  O636  1  0.33924224  0.77362723  0.88371739  1
  O  O637  1  0.33811959  0.47648097  0.39030260  1
  O  O638  1  0.33929738  0.47725502  0.87793188  1
  O  O639  1  0.33865630  0.97469895  0.38689233  1
  O  O640  1  0.33762471  0.97336896  0.88594202  1
  O  O641  1  0.95145412  0.12483841  0.14135903  1
  O  O642  1  0.09806300  0.62478086  0.86440605  1
  O  O643  1  0.83543629  0.27608251  0.36215058  1
  O  O644  1  0.84011084  0.27593283  0.86183767  1
  O  O645  1  0.84182922  0.77435621  0.36308324  1
  O  O646  1  0.83916311  0.77618981  0.86523436  1
  O  O647  1  0.83910944  0.47498461  0.36433067  1
  O  O648  1  0.84010838  0.47564139  0.86344494  1
  O  O649  1  0.84000580  0.97373240  0.36614869  1
  O  O650  1  0.84469906  0.97537083  0.86633243  1
  O  O651  1  0.90061384  0.37586501  0.13465426  1
  O  O652  1  0.16077290  0.22493167  0.63815887  1
  O  O653  1  0.16016169  0.72423302  0.13567535  1
  O  O654  1  0.16062048  0.72439431  0.63523463  1
  O  O655  1  0.16061889  0.02464239  0.13634195  1
  O  O656  1  0.16105949  0.02540081  0.63496100  1
  O  O657  1  0.15741943  0.52450742  0.13395233  1
  O  O658  1  0.15964753  0.52562468  0.63389789  1
  O  O659  1  0.67158410  0.22000953  0.10176995  1
  O  O660  1  0.66365773  0.22115978  0.60676960  1
  O  O661  1  0.66116867  0.72572966  0.11496172  1
  O  O662  1  0.66068347  0.72545678  0.61703234  1
  O  O663  1  0.32620942  0.28072794  0.39479007  1
  O  O664  1  0.33547890  0.27702397  0.88268795  1
  O  O665  1  0.09813366  0.12392417  0.36652087  1
  O  O666  1  0.09858723  0.12414288  0.86568108  1
  O  O667  1  0.09559130  0.62714687  0.36335771  1
  O  O668  1  0.09777319  0.62508479  0.86443094  1
  O  O669  1  0.83540732  0.27558153  0.36205317  1
  O  O670  1  0.66192101  0.02352769  0.60965643  1
  O  O671  1  0.66237030  0.52662818  0.11405279  1
  O  O672  1  0.66133465  0.52529608  0.61309624  1
  O  O673  1  0.16078255  0.22493055  0.13816671  1
  O  O674  1  0.16053666  0.22455979  0.63727960  1
  O  O675  1  0.16062633  0.72438811  0.13524418  1
  O  O676  1  0.16015997  0.72423104  0.63566718  1
  O  O677  1  0.09812735  0.12391353  0.36608839  1
  O  O678  1  0.09826577  0.12427746  0.86570275  1
  O  O679  1  0.09691032  0.62629181  0.36350365  1
  O  O680  1  0.09773503  0.62528446  0.86407270  1
  O  O681  1  0.83720849  0.27516188  0.36241520  1
  O  O682  1  0.83941907  0.27560748  0.86328581  1
  O  O683  1  0.84050396  0.77496062  0.36466204  1
  O  O684  1  0.83961967  0.77603110  0.86518874  1
  O  O685  1  0.04783554  0.37504896  0.85849926  1
  O  O686  1  0.04884289  0.87461986  0.35868371  1
  O  O687  1  0.04834322  0.87457995  0.85871575  1
  O  O688  1  0.39400043  0.38617420  0.10978894  1
  O  O689  1  0.54730040  0.87469942  0.89217908  1
  O  O690  1  0.60599656  0.11380935  0.39020064  1
  O  O691  1  0.83877429  0.27549869  0.36169855  1
  O  O692  1  0.83855917  0.27523775  0.86037256  1
  O  O693  1  0.84149629  0.77476726  0.36400211  1
  O  O694  1  0.83949548  0.77561033  0.86534484  1
  O  O695  1  0.84041519  0.47521607  0.36308259  1
  O  O696  1  0.83840085  0.47462166  0.86367141  1
  O  O697  1  0.84182120  0.97461036  0.36505106  1
  O  O698  1  0.84242510  0.97516103  0.86482370  1
  O  O699  1  0.90175473  0.37571245  0.13429898  1
  O  O700  1  0.90188429  0.37604259  0.63390445  1
  O  O701  1  0.66141905  0.72721721  0.11615308  1
  O  O702  1  0.66064165  0.72487213  0.61769210  1
  O  O703  1  0.33199776  0.28462820  0.39563244  1
  O  O704  1  0.32884748  0.27956978  0.89348553  1
  O  O705  1  0.33935852  0.77511877  0.38232045  1
  O  O706  1  0.33857734  0.77278258  0.88386027  1
  O  O707  1  0.33076842  0.48934397  0.37177299  1
  O  O708  1  0.33824725  0.47720672  0.88117617  1
  O  O709  1  0.33924855  0.97540372  0.38595258  1
  O  O710  1  0.33718540  0.97302387  0.88694782  1
  O  O711  1  0.33864875  0.77330929  0.88458890  1
  O  O712  1  0.33424962  0.48357675  0.37713409  1
  O  O713  1  0.33741905  0.47794529  0.88418543  1
  O  O714  1  0.39787475  0.87133647  0.61265431  1
  O  O715  1  0.16091010  0.02494656  0.13662053  1
  O  O716  1  0.16007153  0.02486829  0.63649076  1
  O  O717  1  0.15616326  0.52491390  0.13513176  1
  O  O718  1  0.15810402  0.52617308  0.63446024  1
  O  O719  1  0.66994207  0.22130723  0.11058553  1
  O  O720  1  0.67575238  0.21676005  0.60629340  1
  O  O721  1  0.83894580  0.47459546  0.36503875  1
  O  O722  1  0.83938511  0.47535550  0.86364845  1
  O  O723  1  0.84036712  0.97438291  0.36610087  1
  O  O724  1  0.84258139  0.97548336  0.86601676  1
  O  O725  1  0.89996180  0.37606450  0.13521187  1
  O  O726  1  0.66272242  0.22325250  0.11272832  1
  O  O727  1  0.90184028  0.37606384  0.13489402  1
  O  O728  1  0.90288289  0.37562559  0.63514065  1
  O  O729  1  0.66075709  0.72637942  0.11628546  1
  O  O730  1  0.66182113  0.72547741  0.61396956  1
  O  O731  1  0.95227150  0.12427243  0.14079733  1
  O  O732  1  0.95344460  0.12588233  0.64347109  1
  O  O733  1  0.94972470  0.62626478  0.14028390  1
  O  O734  1  0.95063143  0.62496730  0.64188513  1
  O  O735  1  0.45437182  0.11788558  0.09936991  1
  O  O736  1  0.45845527  0.11973516  0.59831363  1
  O  O737  1  0.45305283  0.62578025  0.10616513  1
  O  O738  1  0.45204719  0.62460678  0.60776979  1
  O  O739  1  0.54231543  0.37955121  0.40256668  1
  O  O740  1  0.54650819  0.37995055  0.89266637  1
  O  O741  1  0.60463307  0.11568372  0.88223266  1
  O  O742  1  0.60209798  0.62961611  0.38701229  1
  O  O743  1  0.39782478  0.87175706  0.61215107  1
  O  O744  1  0.15981955  0.02456488  0.13664256  1
  O  O745  1  0.16033158  0.02494593  0.63659119  1
  O  O746  1  0.15555467  0.52471874  0.13462881  1
  O  O747  1  0.15875337  0.52635079  0.63402766  1
  O  O748  1  0.67078257  0.22080665  0.10826793  1
  O  O749  1  0.67298333  0.21504820  0.60567417  1
  O  O750  1  0.66133909  0.72713695  0.11626276  1
  O  O751  1  0.66101117  0.72527509  0.61739644  1
  O  O752  1  0.33165013  0.28485012  0.39782259  1
  O  O753  1  0.54741165  0.87493359  0.89263121  1
  O  O754  1  0.60730575  0.11530822  0.38843981  1
  O  O755  1  0.60526697  0.11652763  0.89260685  1
  O  O756  1  0.60045684  0.62871618  0.38719632  1
  O  O757  1  0.60187439  0.63011596  0.88727278  1
  O  O758  1  0.66186107  0.02321530  0.12105361  1
  O  O759  1  0.66209001  0.02006578  0.62355249  1
  O  O760  1  0.66178383  0.52695748  0.11448536  1
  O  O761  1  0.90294900  0.37607726  0.63486219  1
  O  O762  1  0.90183396  0.87552267  0.13616197  1
  O  O763  1  0.15815984  0.72564942  0.63692938  1
  O  O764  1  0.09704992  0.12389006  0.36513511  1
  O  O765  1  0.10031220  0.12387057  0.86491615  1
  O  O766  1  0.09608673  0.62615909  0.36284353  1
  O  O767  1  0.09816919  0.62444085  0.86383816  1
  O  O768  1  0.83795079  0.27573560  0.36163131  1
  O  O769  1  0.83837377  0.27548580  0.85991503  1
  O  O770  1  0.84224885  0.77417107  0.36325284  1
  O  O771  1  0.83947497  0.77561687  0.86532544  1
  O  O772  1  0.83993489  0.47513001  0.36346348  1
  O  O773  1  0.40092533  0.37736709  0.61987520  1
  O  O774  1  0.39783822  0.87063084  0.11306953  1
  O  O775  1  0.40089975  0.87336676  0.61368504  1
  O  O776  1  0.15956699  0.02485119  0.13682284  1
  O  O777  1  0.16093825  0.02553417  0.63567113  1
  O  O778  1  0.16037541  0.72396000  0.13485145  1
  O  O779  1  0.15948438  0.72505079  0.63535011  1
  O  O780  1  0.09712258  0.12436296  0.36485731  1
  O  O781  1  0.09816251  0.12392467  0.86510783  1
  O  O782  1  0.09778993  0.62496311  0.36403744  1
  O  O783  1  0.09861777  0.62509155  0.86385954  1
  O  O784  1  0.83946107  0.27543817  0.36272654  1
  O  O785  1  0.83922771  0.27506352  0.86184279  1
  O  O786  1  0.83982286  0.77577849  0.36433601  1
  O  O787  1  0.59907294  0.12263353  0.88008542  1
  O  O788  1  0.60216150  0.62938047  0.38693931  1
  O  O789  1  0.59910641  0.62666205  0.88632926  1
  O  O790  1  0.66191411  0.02352739  0.10964916  1
  O  O791  1  0.66070405  0.02273939  0.62206385  1
  O  O792  1  0.66134060  0.52529791  0.11309399  1
  O  O793  1  0.66236574  0.52662977  0.61405841  1
  O  O794  1  0.16054079  0.22456010  0.13728737  1
  O  O795  1  0.90226808  0.87468502  0.13592701  1
  O  O796  1  0.90308805  0.87362054  0.63650043  1
  O  O797  1  0.04815566  0.37484026  0.35690220  1
  O  O798  1  0.04690906  0.37519834  0.85800458  1
  O  O799  1  0.04980435  0.87455221  0.35829064  1
  O  O800  1  0.04946173  0.87412387  0.85912814  1
  O  O801  1  0.39473117  0.38346250  0.10737413  1
  O  O802  1  0.39270914  0.38466822  0.61157296  1
  O  O803  1  0.39812002  0.86989134  0.11273246  1
  O  O804  1  0.39954700  0.87129900  0.61280737  1
  O  O805  1  0.67111566  0.22042811  0.10650431  1
  O  O806  1  0.66800806  0.21536653  0.60434701  1
  O  O807  1  0.84044235  0.47513986  0.86317257  1
  O  O808  1  0.84043320  0.97525812  0.36471541  1
  O  O809  1  0.84090669  0.97542418  0.86452379  1
  O  O810  1  0.67035365  0.22091401  0.60266249  1
  O  O811  1  0.04885271  0.87461039  0.85869169  1
  O  O812  1  0.40092437  0.37736778  0.11989631  1
  O  O813  1  0.39399065  0.38617623  0.60979918  1
  O  O814  1  0.40089778  0.87336171  0.11368129  1
  O  O815  1  0.32831280  0.27991095  0.89637211  1
  O  O816  1  0.33893918  0.77549104  0.38325728  1
  O  O817  1  0.95124257  0.12456397  0.14296820  1
  O  O818  1  0.95225506  0.12543818  0.64393833  1
  O  O819  1  0.94969170  0.62642123  0.14011495  1
  O  O820  1  0.95071596  0.62472946  0.64215806  1
  O  O821  1  0.45392956  0.11865520  0.10169449  1
  O  O822  1  0.46037079  0.11649284  0.60061815  1
  O  O823  1  0.45356469  0.62558958  0.10678833  1
  O  O824  1  0.45164840  0.62513509  0.60798318  1
  O  O825  1  0.53963386  0.38350440  0.39936467  1
  O  O826  1  0.54606106  0.38132336  0.89828305  1
  O  O827  1  0.33813613  0.47677979  0.87893456  1
  O  O828  1  0.33936220  0.97450233  0.38643084  1
  O  O829  1  0.33821367  0.97304169  0.88551535  1
  O  O830  1  0.54833542  0.87485497  0.39201193  1
  O  O831  1  0.54643336  0.87440441  0.89321825  1
  O  O832  1  0.61083255  0.10984059  0.39182466  1
  O  O833  1  0.60801051  0.11356000  0.88624905  1
  O  O834  1  0.60237081  0.62897687  0.38807898  1
  O  O835  1  0.60248910  0.63027255  0.88627083  1
  O  O836  1  0.66173163  0.02278551  0.11882071  1
  O  O837  1  0.66923659  0.01065252  0.62822349  1
  O  O838  1  0.66280874  0.52697319  0.11304729  1
  O  O839  1  0.66074144  0.52458887  0.61404620  1
  O  O840  1  0.90440073  0.87277400  0.63664581  1
  O  O841  1  0.04779731  0.37501254  0.35639013  1
  O  O842  1  0.04693956  0.37526769  0.85748424  1
  O  O843  1  0.05020131  0.87448245  0.35788587  1
  O  O844  1  0.05014404  0.87368293  0.85972081  1
  O  O845  1  0.39327442  0.38528279  0.11005247  1
  O  O846  1  0.38671448  0.38980065  0.60796534  1
  O  O847  1  0.39820218  0.87030177  0.11292841  1
  O  O848  1  0.39860472  0.87059747  0.61249303  1
  O  O849  1  0.45184962  0.62722223  0.60818630  1
  O  O850  1  0.54154810  0.38025959  0.40167746  1
  O  O851  1  0.54564744  0.38208962  0.90063109  1
  O  O852  1  0.54795031  0.87538851  0.39223164  1
  O  O853  1  0.54694489  0.87421083  0.89384213  1
  O  O854  1  0.61326528  0.11018453  0.39204330  1
  O  O855  1  0.60671097  0.11470202  0.88992485  1
  O  O856  1  0.60139570  0.62941330  0.38751204  1
  O  O857  1  0.60179331  0.62970813  0.88707895  1
  O  O858  1  0.66229331  0.02281714  0.11945806  1
  O  O859  1  0.95247164  0.12452973  0.14026228  1
  O  O860  1  0.15982497  0.22416056  0.13905249  1
  O  O861  1  0.16320092  0.22357123  0.63770943  1
  O  O862  1  0.16075655  0.72389557  0.13491836  1
  O  O863  1  0.15811908  0.72561805  0.63725546  1
  O  O864  1  0.09749617  0.12403791  0.36557015  1
  O  O865  1  0.09938479  0.12411743  0.86534519  1
  O  O866  1  0.09519840  0.62683494  0.36316135  1
  O  O867  1  0.09814955  0.62436549  0.86423041  1
  O  O868  1  0.83723958  0.27614998  0.36179429  1
  O  O869  1  0.83938167  0.27565200  0.86035222  1
  O  O870  1  0.66123629  0.72703923  0.11633713  1
  O  O871  1  0.66113507  0.72566708  0.61675916  1
  O  O872  1  0.33277186  0.28270702  0.39835380  1
  O  O873  1  0.83997757  0.27592926  0.86242708  1
  O  O874  1  0.84160577  0.77440111  0.36380312  1
  O  O875  1  0.83934328  0.77608297  0.86539361  1
  O  O876  1  0.83869545  0.47477129  0.36512142  1
  O  O877  1  0.83964115  0.47562269  0.86360096  1
  O  O878  1  0.84044837  0.97390390  0.36635034  1
  O  O879  1  0.84424182  0.97534896  0.86661875  1
  O  O880  1  0.16036341  0.02437103  0.13638877  1
  O  O881  1  0.16131274  0.02522977  0.63487404  1
  O  O882  1  0.15577786  0.52465230  0.13337172  1
  O  O883  1  0.15955582  0.52609785  0.63364758  1
  O  O884  1  0.67169436  0.22007777  0.10361549  1
  O  O885  1  0.66722342  0.21729384  0.60162894  1
  O  O886  1  0.66134939  0.72668602  0.11542286  1
  O  O887  1  0.66106376  0.72450416  0.61675749  1
  O  O888  1  0.32425372  0.28322963  0.39370121  1
  O  O889  1  0.33000132  0.27867976  0.88940971  1
  O  O890  1  0.45252057  0.62565564  0.60875591  1
  O  O891  1  0.54690502  0.37503989  0.39138312  1
  O  O892  1  0.54684182  0.38099704  0.90003663  1
  O  O893  1  0.54729846  0.87469828  0.39218303  1
  O  O894  1  0.54746893  0.87433746  0.89124976  1
  O  O895  1  0.59907590  0.12263578  0.38008808  1
  O  O896  1  0.60599598  0.11380912  0.89020054  1
  O  O897  1  0.59910553  0.62665518  0.38632771  1
  O  O898  1  0.60216377  0.62938793  0.88694341  1
  O  O899  1  0.66069971  0.02273874  0.12205798  1
  O  O900  1  0.54559657  0.38187809  0.89897170  1
  O  O901  1  0.54825442  0.87549876  0.39209681  1
  O  O902  1  0.54658925  0.87421694  0.89375862  1
  O  O903  1  0.61264107  0.10966500  0.39314113  1
  O  O904  1  0.45230133  0.62453688  0.60747220  1
  O  O905  1  0.54490088  0.38118019  0.39942586  1
  O  O906  1  0.54643761  0.37684372  0.88673971  1
  O  O907  1  0.54805844  0.87332852  0.39136889  1
  O  O908  1  0.54817888  0.87330908  0.39201207  1
  O  O909  1  0.54667254  0.87423044  0.89264163  1
  O  O910  1  0.61255860  0.10493119  0.38694797  1
  O  O911  1  0.60826756  0.11360116  0.88554902  1
  O  O912  1  0.60217536  0.62825760  0.38785314  1
  O  O913  1  0.60221354  0.62995841  0.88594443  1
  O  O914  1  0.66244908  0.02215066  0.11745085  1
  O  O915  1  0.66778678  0.01295095  0.62587329  1
  O  O916  1  0.66253420  0.52688774  0.11266317  1
  O  O917  1  0.66071730  0.52417430  0.61402999  1
  O  O918  1  0.33899103  0.77471518  0.38261631  1
  O  O919  1  0.33865843  0.77286092  0.88374729  1
  O  O920  1  0.33319469  0.48903293  0.37063155  1
  O  O921  1  0.33810506  0.47702852  0.88073772  1
  O  O922  1  0.33952020  0.97497644  0.38595996  1
  O  O923  1  0.33763826  0.97309889  0.88643826  1
  O  O924  1  0.95181569  0.12431888  0.14200100  1
  O  O925  1  0.95300405  0.12571317  0.64372337  1
  O  O926  1  0.94960734  0.62635996  0.14018822  1
  O  O927  1  0.95058900  0.62475719  0.64212823  1
  O  O928  1  0.66332323  0.01530992  0.62862814  1
  O  O929  1  0.66180530  0.52680143  0.11426953  1
  O  O930  1  0.66056979  0.52558049  0.61405110  1
  O  O931  1  0.16162104  0.22450532  0.14009734  1
  O  O932  1  0.16204511  0.22426654  0.63832297  1
  O  O933  1  0.16052130  0.72437730  0.13471520  1
  O  O934  1  0.15773834  0.72583599  0.63675460  1
  O  O935  1  0.09765014  0.12403073  0.36617564  1
  O  O936  1  0.09842923  0.12423091  0.86602751  1
  O  O937  1  0.09496929  0.62735675  0.36336226  1
  O  O938  1  0.66213288  0.52652918  0.11253243  1
  O  O939  1  0.66112149  0.52443269  0.61386365  1
  O  O940  1  0.16003050  0.22406285  0.13758033  1
  O  O941  1  0.16458679  0.22442205  0.63794761  1
  O  O942  1  0.16065388  0.72391655  0.13464290  1
  O  O943  1  0.15838580  0.72560423  0.63620399  1
  O  O944  1  0.09711961  0.12413299  0.36455919  1
  O  O945  1  0.10003880  0.12391913  0.86478641  1
  O  O946  1  0.09707501  0.62548809  0.36314963  1
  O  O947  1  0.09834748  0.62469102  0.86346550  1
  O  O948  1  0.66204172  0.52577378  0.61354246  1
  O  O949  1  0.16058053  0.22438967  0.13671791  1
  O  O950  1  0.16278171  0.22483705  0.63758511  1
  O  O951  1  0.16002157  0.52614981  0.63398738  1
  O  O952  1  0.33728443  0.27674509  0.38724755  1
  O  O953  1  0.32965625  0.27908077  0.89734032  1
  O  O954  1  0.33924083  0.77362739  0.38372147  1
  O  O955  1  0.33817940  0.77451869  0.88603758  1
  O  O956  1  0.33930090  0.47725278  0.37793351  1
  O  O957  1  0.33882794  0.77426604  0.88505384  1
  O  O958  1  0.33667086  0.47975672  0.37928208  1
  O  O959  1  0.33787198  0.47780641  0.88548341  1
  O  O960  1  0.83983086  0.77576815  0.86433638  1
  O  O961  1  0.83907000  0.47446366  0.36433345  1
  O  O962  1  0.33865785  0.97470021  0.88690116  1
  O  O963  1  0.95216747  0.12495863  0.14150264  1
  O  O964  1  0.95146306  0.12484195  0.64135358  1
  O  O965  1  0.95166164  0.62542750  0.14128307  1
  O  O966  1  0.95115339  0.62539292  0.64130973  1
  O  O967  1  0.45309249  0.12495505  0.10860971  1
  O  O968  1  0.45316041  0.11899605  0.59996808  1
  O  O969  1  0.45269263  0.62529903  0.10781831  1
  O  O970  1  0.39789950  0.87039217  0.61299127  1
  O  O971  1  0.16161269  0.02537678  0.13631776  1
  O  O972  1  0.95289107  0.12565339  0.64289536  1
  O  O973  1  0.95044557  0.62573110  0.14071494  1
  O  O974  1  0.95102081  0.62507243  0.64150575  1
  O  O975  1  0.45381464  0.11833858  0.09891671  1
  O  O976  1  0.45583935  0.12405182  0.60239182  1
  O  O977  1  0.45258503  0.62505847  0.10737452  1
  O  O978  1  0.54814553  0.87277436  0.39181507  1
  O  O979  1  0.54706587  0.87390094  0.89202250  1
  O  O980  1  0.61034116  0.10686349  0.38420066  1
  O  O981  1  0.60716419  0.11462478  0.88361905  1
  O  O982  1  0.60212742  0.62868122  0.38735087  1
  O  O983  1  0.60139809  0.62875955  0.88567906  1
  O  O984  1  0.66260541  0.02204928  0.11578319  1
  O  O985  1  0.66575464  0.01642390  0.62284904  1
  O  O986  1  0.60011134  0.62721007  0.88597576  1
  O  O987  1  0.66213688  0.02218772  0.11450139  1
  O  O988  1  0.66333382  0.02024623  0.62071211  1
  O  O989  1  0.66153870  0.52546213  0.11267733  1
  O  O990  1  0.39197895  0.38643426  0.11372519  1
  O  O991  1  0.38916358  0.39015025  0.60816342  1
  O  O992  1  0.39750665  0.86973814  0.11373548  1
  O  O993  1  0.39762790  0.87103294  0.61192631  1
  O  O994  1  0.15928430  0.02442522  0.13660725  1
  O  O995  1  0.16028497  0.02483769  0.63644888  1
  O  O996  1  0.15535158  0.52458397  0.13425590  1
  O  O997  1  0.05031391  0.87357674  0.85989027  1
