# generated using pymatgen
data_Li134Fe144P144O575
_symmetry_space_group_name_H-M   'P 1'
_cell_length_a   10.33842274
_cell_length_b   12.50328921
_cell_length_c   9.47720351
_cell_angle_alpha   89.99999924
_cell_angle_beta   89.99984847
_cell_angle_gamma   90.00000605
_symmetry_Int_Tables_number   1
_chemical_formula_structural   Li134Fe144P144O575
_chemical_formula_sum   'Li134 Fe144 P144 O575'
_cell_volume   1225.06397774
_cell_formula_units_Z   1
loop_
 _symmetry_equiv_pos_site_id
 _symmetry_equiv_pos_as_xyz
  1  'x, y, z'
loop_
 _atom_site_type_symbol
 _atom_site_label
 _atom_site_symmetry_multiplicity
 _atom_site_fract_x
 _atom_site_fract_y
 _atom_site_fract_z
 _atom_site_occupancy
  Li  Li0  1  -0.00054893  0.49911872  0.50074973  1
  Li  Li1  1  0.50001682  0.24997589  0.75003013  1
  Li  Li2  1  0.50000454  0.74998681  0.25001481  1
  Li  Li3  1  0.00061151  0.00096427  0.49916034  1
  Li  Li4  1  -0.00057252  0.49908523  0.00077408  1
  Li  Li5  1  0.00074696  0.00216630  -0.00176235  1
  Li  Li6  1  -0.00070510  0.49788550  0.50169929  1
  Li  Li7  1  0.50001470  0.24997871  0.25002137  1
  Li  Li8  1  0.50000845  0.74998203  0.25002036  1
  Li  Li9  1  0.50001878  0.74997808  0.75002974  1
  Li  Li10  1  0.50285950  0.00410726  0.25932415  1
  Li  Li11  1  0.50539987  0.01684661  0.76032079  1
  Li  Li12  1  0.49710214  0.49585636  0.24061185  1
  Li  Li13  1  0.49458876  0.48313211  0.73965588  1
  Li  Li14  1  0.00149616  0.24941014  -0.00143914  1
  Li  Li15  1  -0.00151510  0.25062965  0.50147932  1
  Li  Li16  1  0.00090619  0.74972750  -0.00040626  1
  Li  Li17  1  -0.00098231  0.75034671  0.50051010  1
  Li  Li18  1  0.00293674  0.00199279  -0.00213592  1
  Li  Li19  1  0.50540436  0.01685587  0.26032743  1
  Li  Li20  1  0.50284971  0.00409684  0.75931725  1
  Li  Li21  1  0.49458520  0.48313317  0.23966776  1
  Li  Li22  1  0.49710165  0.49584942  0.74061057  1
  Li  Li23  1  -0.00150664  0.25061764  0.00146466  1
  Li  Li24  1  -0.00113624  0.00079367  0.50076800  1
  Li  Li25  1  -0.00339275  0.49778133  0.00304309  1
  Li  Li26  1  0.00052317  0.49823146  0.50056935  1
  Li  Li27  1  0.51172829  0.23364650  0.30447202  1
  Li  Li28  1  0.50049508  0.74932157  0.25069722  1
  Li  Li29  1  0.00148627  0.24942365  0.49857498  1
  Li  Li30  1  -0.00095419  0.75031503  0.00048881  1
  Li  Li31  1  0.00075705  0.74984914  0.49972274  1
  Li  Li32  1  0.50496453  0.01064051  0.25603841  1
  Li  Li33  1  0.50593412  0.01180441  0.76864635  1
  Li  Li34  1  0.49385616  0.48708509  0.22698495  1
  Li  Li35  1  0.49442030  0.49493828  0.74254620  1
  Li  Li36  1  -0.00138932  0.24991420  -0.00023460  1
  Li  Li37  1  0.00094988  0.24950311  0.49870120  1
  Li  Li38  1  0.50030234  0.74979613  0.75068365  1
  Li  Li39  1  0.50391018  0.00142578  0.25727138  1
  Li  Li40  1  0.50611231  0.01578813  0.76810725  1
  Li  Li41  1  0.49294612  0.49021244  0.23418682  1
  Li  Li42  1  0.49479417  0.48661691  0.74231483  1
  Li  Li43  1  0.00161860  0.24964090  -0.00028792  1
  Li  Li44  1  -0.00106026  0.25065426  0.50166393  1
  Li  Li45  1  0.00050869  0.74958276  -0.00051877  1
  Li  Li46  1  -0.00059880  0.75008610  0.50025762  1
  Li  Li47  1  0.00071775  0.24976258  0.49917532  1
  Li  Li48  1  -0.00014255  0.75015257  0.00010292  1
  Li  Li49  1  0.00003521  0.75014140  0.50023399  1
  Li  Li50  1  0.00305693  0.00248975  -0.00331498  1
  Li  Li51  1  -0.00184291  0.00146215  0.50035261  1
  Li  Li52  1  -0.00300373  0.49803379  0.00198814  1
  Li  Li53  1  0.00288131  0.49953086  0.49816723  1
  Li  Li54  1  0.49314009  0.26933830  0.63267134  1
  Li  Li55  1  0.49967705  0.75040906  0.24901087  1
  Li  Li56  1  0.49991584  0.74994441  0.74994439  1
  Li  Li57  1  -0.00072238  0.49786747  0.00172181  1
  Li  Li58  1  -0.00265736  0.49800539  0.00173112  1
  Li  Li59  1  0.00388081  0.49945034  0.49796883  1
  Li  Li60  1  0.49288576  0.26760975  0.56678114  1
  Li  Li61  1  0.49955854  0.75050655  0.24886230  1
  Li  Li62  1  0.50030700  0.74929545  0.75085707  1
  Li  Li63  1  0.50542464  0.01139948  0.25786828  1
  Li  Li64  1  0.50468909  0.01311937  0.77139227  1
  Li  Li65  1  0.49497445  0.48808071  0.22520625  1
  Li  Li66  1  0.49392373  0.48858352  0.73978440  1
  Li  Li67  1  -0.00070579  0.24971865  -0.00023183  1
  Li  Li68  1  0.49971062  0.75017064  0.24935794  1
  Li  Li69  1  0.49953294  0.75063406  0.74936130  1
  Li  Li70  1  0.49969081  0.75057220  0.24924892  1
  Li  Li71  1  0.50046369  0.74944660  0.75119956  1
  Li  Li72  1  0.50606038  0.01138796  0.26018814  1
  Li  Li73  1  0.50502277  0.01190037  0.77477576  1
  Li  Li74  1  0.49531948  0.48686638  0.22858272  1
  Li  Li75  1  0.49456940  0.48856861  0.74210539  1
  Li  Li76  1  0.00066644  0.25033461  0.00027989  1
  Li  Li77  1  -0.00078168  0.25032110  0.50090682  1
  Li  Li78  1  0.00003866  0.74994750  0.00002948  1
  Li  Li79  1  -0.00020527  0.75003954  0.50000870  1
  Li  Li80  1  0.50520655  0.01337083  0.25767017  1
  Li  Li81  1  0.50705756  0.00976853  0.76578870  1
  Li  Li82  1  0.49388898  0.48419099  0.23188319  1
  Li  Li83  1  0.49607508  0.49853958  0.74268831  1
  Li  Li84  1  -0.00164435  0.25039835  0.00033099  1
  Li  Li85  1  0.00099630  0.24943157  0.49842885  1
  Li  Li86  1  -0.00057938  0.75049031  0.00065074  1
  Li  Li87  1  0.00040302  0.75011439  0.50001957  1
  Li  Li88  1  0.00059623  0.00094723  -0.00081591  1
  Li  Li89  1  0.00076743  0.00219850  0.49821162  1
  Li  Li90  1  0.49454312  0.48602490  0.73942860  1
  Li  Li91  1  -0.00002528  0.25003156  0.00002288  1
  Li  Li92  1  -0.00003342  0.25004224  0.50004165  1
  Li  Li93  1  -0.00003359  0.75003662  0.00004983  1
  Li  Li94  1  -0.00007997  0.75008711  0.50011729  1
  Li  Li95  1  0.00277247  0.00245430  -0.00259923  1
  Li  Li96  1  -0.00326116  0.00088783  0.50130059  1
  Li  Li97  1  -0.00034321  0.75032751  0.00035992  1
  Li  Li98  1  0.00023989  0.75019303  0.50021936  1
  Li  Li99  1  0.00342845  0.00226700  -0.00311291  1
  Li  Li100  1  -0.00041766  0.00190293  0.49927205  1
  Li  Li101  1  -0.00287538  0.49805927  0.00206377  1
  Li  Li102  1  0.00124092  0.49934241  0.49904102  1
  Li  Li103  1  0.48827795  0.26633189  0.69559313  1
  Li  Li104  1  0.50010531  0.75000785  0.25011254  1
  Li  Li105  1  0.50034193  0.74955006  0.75104103  1
  Li  Li106  1  0.50556255  0.00500980  0.25740713  1
  Li  Li107  1  0.50614670  0.01289710  0.77300359  1
  Li  Li108  1  0.49407398  0.48818312  0.23133515  1
  Li  Li109  1  0.00293756  0.00208532  -0.00185419  1
  Li  Li110  1  -0.00379079  0.00067250  0.50188195  1
  Li  Li111  1  -0.00263232  0.49761289  0.00252629  1
  Li  Li112  1  0.00338426  0.49925899  0.49852580  1
  Li  Li113  1  0.50713412  0.23239405  0.43327582  1
  Li  Li114  1  0.00267896  0.00228581  -0.00199560  1
  Li  Li115  1  -0.00406462  0.00063396  0.50173266  1
  Li  Li116  1  -0.00235492  0.49780245  0.00186238  1
  Li  Li117  1  0.00417158  0.49949150  0.49812059  1
  Li  Li118  1  0.50000369  0.24999820  0.49998470  1
  Li  Li119  1  0.49959342  0.75070349  0.24880369  1
  Li  Li120  1  0.50043333  0.74925248  0.75125485  1
  Li  Li121  1  0.50544269  0.01393287  0.26054728  1
  Li  Li122  1  0.50375692  0.01267191  0.77354708  1
  Li  Li123  1  0.49624841  0.48731031  0.22643879  1
  Li  Li124  1  0.00325681  0.00205609  -0.00207303  1
  Li  Li125  1  0.49503104  0.48933724  0.74394249  1
  Li  Li126  1  0.00135892  0.25013120  0.00027787  1
  Li  Li127  1  -0.00101169  0.25057769  0.50138061  1
  Li  Li128  1  0.00021656  0.74978884  -0.00020025  1
  Li  Li129  1  -0.00041602  0.74998847  0.50002417  1
  Li  Li130  1  -0.00278834  0.00059339  0.50168564  1
  Li  Li131  1  -0.00301211  0.49756172  0.00324811  1
  Li  Li132  1  0.00195298  0.49867408  0.49949035  1
  Li  Li133  1  0.50684044  0.23063239  0.36740891  1
  Fe  Fe134  1  0.28359869  0.62320820  0.48343739  1
  Fe  Fe135  1  0.28381624  0.62317896  0.98133252  1
  Fe  Fe136  1  0.21793216  0.37515235  0.23303272  1
  Fe  Fe137  1  0.22159266  0.37461814  0.73731193  1
  Fe  Fe138  1  0.21792420  0.87453270  0.23274060  1
  Fe  Fe139  1  0.77840290  0.12538715  0.76269288  1
  Fe  Fe140  1  0.78207661  0.62546447  0.26726047  1
  Fe  Fe141  1  0.78191091  0.62516830  0.76685748  1
  Fe  Fe142  1  0.78206428  0.12485807  0.26696184  1
  Fe  Fe143  1  0.71621467  0.37467477  0.01558547  1
  Fe  Fe144  1  0.28350870  0.62192210  0.98158220  1
  Fe  Fe145  1  0.21757902  0.37536956  0.23210798  1
  Fe  Fe146  1  0.28025148  0.63044619  0.48456369  1
  Fe  Fe147  1  0.28355618  0.62075987  0.98225983  1
  Fe  Fe148  1  0.21684878  0.37543217  0.23021988  1
  Fe  Fe149  1  0.21918481  0.37532245  0.73930819  1
  Fe  Fe150  1  0.21796615  0.87520421  0.23297208  1
  Fe  Fe151  1  0.21869961  0.87471212  0.73261794  1
  Fe  Fe152  1  0.78069705  0.12496011  0.26448497  1
  Fe  Fe153  1  0.78436253  0.12504276  0.77539082  1
  Fe  Fe154  1  0.71864163  0.87028349  0.51830174  1
  Fe  Fe155  1  0.28246843  0.12439579  0.48614342  1
  Fe  Fe156  1  0.28589794  0.12817150  0.98367206  1
  Fe  Fe157  1  0.21960358  0.37497273  0.73900852  1
  Fe  Fe158  1  0.21796084  0.87481169  0.23273583  1
  Fe  Fe159  1  0.21831906  0.87494470  0.73295756  1
  Fe  Fe160  1  0.78257119  0.12379915  0.26452223  1
  Fe  Fe161  1  0.78320684  0.12500466  0.77357741  1
  Fe  Fe162  1  0.78153223  0.62533835  0.26753172  1
  Fe  Fe163  1  0.78151951  0.62549925  0.76763239  1
  Fe  Fe164  1  0.28491289  0.12562372  0.47956070  1
  Fe  Fe165  1  0.28583655  0.12706075  0.98457019  1
  Fe  Fe166  1  0.28135234  0.62970861  0.48169915  1
  Fe  Fe167  1  0.28347978  0.62058815  0.98213680  1
  Fe  Fe168  1  0.21678943  0.37499499  0.22643351  1
  Fe  Fe169  1  0.21742026  0.37620808  0.73545675  1
  Fe  Fe170  1  0.21847936  0.87449657  0.23237839  1
  Fe  Fe171  1  0.21847357  0.87466824  0.73247583  1
  Fe  Fe172  1  0.78039383  0.12503657  0.26098154  1
  Fe  Fe173  1  0.78161618  0.62561021  0.26746478  1
  Fe  Fe174  1  0.78179267  0.62522232  0.76765986  1
  Fe  Fe175  1  0.71375931  0.37200016  0.01558110  1
  Fe  Fe176  1  0.71583829  0.37549340  0.51900661  1
  Fe  Fe177  1  0.71598324  0.88007873  0.01799896  1
  Fe  Fe178  1  0.71975562  0.86723974  0.51644849  1
  Fe  Fe179  1  0.28131248  0.12320329  0.48574621  1
  Fe  Fe180  1  0.28626088  0.12853297  0.98439316  1
  Fe  Fe181  1  0.27991872  0.63228073  0.48477731  1
  Fe  Fe182  1  0.28383704  0.61998719  0.98240017  1
  Fe  Fe183  1  0.22159540  0.37461621  0.23731238  1
  Fe  Fe184  1  0.21792787  0.37515361  0.73303401  1
  Fe  Fe185  1  0.21808805  0.87482136  0.23315326  1
  Fe  Fe186  1  0.21793273  0.87453803  0.73273575  1
  Fe  Fe187  1  0.71416981  0.37293341  0.01542507  1
  Fe  Fe188  1  0.71509514  0.37437149  0.52043280  1
  Fe  Fe189  1  0.71652083  0.87941905  0.01786350  1
  Fe  Fe190  1  0.71597304  0.37263765  0.51821338  1
  Fe  Fe191  1  0.71639816  0.87679580  0.01656680  1
  Fe  Fe192  1  0.71618593  0.87681146  0.51866312  1
  Fe  Fe193  1  0.28379481  0.12532014  0.48441231  1
  Fe  Fe194  1  0.28403780  0.12736092  0.98177765  1
  Fe  Fe195  1  0.21809524  0.87483286  0.73314983  1
  Fe  Fe196  1  0.78427073  0.12348509  0.26694309  1
  Fe  Fe197  1  0.78242353  0.12463057  0.76788212  1
  Fe  Fe198  1  0.78168403  0.62505992  0.26705244  1
  Fe  Fe199  1  0.78203965  0.62517895  0.76727406  1
  Fe  Fe200  1  0.71415529  0.37192453  0.01558965  1
  Fe  Fe201  1  0.71544416  0.37458204  0.51371118  1
  Fe  Fe202  1  0.71648608  0.87806849  0.01841921  1
  Fe  Fe203  1  0.71831340  0.87293236  0.51567566  1
  Fe  Fe204  1  0.28504402  0.12639595  0.48001836  1
  Fe  Fe205  1  0.28592329  0.12650574  0.98321390  1
  Fe  Fe206  1  0.28257080  0.62661477  0.48094089  1
  Fe  Fe207  1  0.21680970  0.37474286  0.22818951  1
  Fe  Fe208  1  0.21942133  0.37527215  0.73790387  1
  Fe  Fe209  1  0.21800513  0.87518446  0.23280962  1
  Fe  Fe210  1  0.21871414  0.87437388  0.73252298  1
  Fe  Fe211  1  0.77923938  0.12563105  0.26437151  1
  Fe  Fe212  1  0.78361886  0.12578062  0.77390400  1
  Fe  Fe213  1  0.78153500  0.62590634  0.26741814  1
  Fe  Fe214  1  0.78211411  0.62493513  0.76752765  1
  Fe  Fe215  1  0.71363797  0.37137049  0.01565740  1
  Fe  Fe216  1  0.71837669  0.37709339  0.51658559  1
  Fe  Fe217  1  0.78191705  0.62516697  0.26684725  1
  Fe  Fe218  1  0.78207445  0.62545838  0.76726935  1
  Fe  Fe219  1  0.71596844  0.37263909  0.01822324  1
  Fe  Fe220  1  0.71623866  0.37467183  0.51558420  1
  Fe  Fe221  1  0.71617858  0.87680884  0.01867679  1
  Fe  Fe222  1  0.71638702  0.87680223  0.51655246  1
  Fe  Fe223  1  0.28403018  0.12735174  0.48177556  1
  Fe  Fe224  1  0.28379520  0.12532306  0.98441709  1
  Fe  Fe225  1  0.28381165  0.62317069  0.48131441  1
  Fe  Fe226  1  0.28359502  0.62319897  0.98344692  1
  Fe  Fe227  1  0.78083424  0.12592720  0.76994176  1
  Fe  Fe228  1  0.78151858  0.62524318  0.26757578  1
  Fe  Fe229  1  0.78153585  0.62538814  0.76746604  1
  Fe  Fe230  1  0.71407848  0.37348923  0.01678147  1
  Fe  Fe231  1  0.71496164  0.37359934  0.51998268  1
  Fe  Fe232  1  0.71672149  0.87843918  0.01723538  1
  Fe  Fe233  1  0.71742237  0.87337693  0.51906107  1
  Fe  Fe234  1  0.28456635  0.12541436  0.48628965  1
  Fe  Fe235  1  0.28584402  0.12807248  0.98439902  1
  Fe  Fe236  1  0.28167514  0.62706598  0.48432718  1
  Fe  Fe237  1  0.28327614  0.62155723  0.98276866  1
  Fe  Fe238  1  0.21917213  0.37407524  0.23005369  1
  Fe  Fe239  1  0.21572825  0.37652193  0.73304194  1
  Fe  Fe240  1  0.21846189  0.87460706  0.23254758  1
  Fe  Fe241  1  0.21848909  0.87476148  0.73243467  1
  Fe  Fe242  1  0.77840315  0.12539304  0.26268998  1
  Fe  Fe243  1  0.78206646  0.12486181  0.76696834  1
  Fe  Fe244  1  0.28023951  0.63274985  0.48355141  1
  Fe  Fe245  1  0.28402282  0.61993369  0.98200084  1
  Fe  Fe246  1  0.21563228  0.37496038  0.22461445  1
  Fe  Fe247  1  0.21928854  0.37504760  0.73549119  1
  Fe  Fe248  1  0.21820389  0.87477207  0.23235414  1
  Fe  Fe249  1  0.21838971  0.87439784  0.73254260  1
  Fe  Fe250  1  0.78081494  0.12468948  0.26068183  1
  Fe  Fe251  1  0.78315332  0.12457220  0.76977545  1
  Fe  Fe252  1  0.78130760  0.62528666  0.26739017  1
  Fe  Fe253  1  0.78203231  0.62478532  0.76704213  1
  Fe  Fe254  1  0.71408316  0.37182617  0.01629552  1
  Fe  Fe255  1  0.71753614  0.37559673  0.51384947  1
  Fe  Fe256  1  0.71644749  0.87922143  0.01773788  1
  Fe  Fe257  1  0.71973640  0.86954966  0.51543989  1
  Fe  Fe258  1  0.71579702  0.88035658  0.01770427  1
  Fe  Fe259  1  0.72031192  0.86620342  0.51520816  1
  Fe  Fe260  1  0.28163960  0.12290246  0.48340592  1
  Fe  Fe261  1  0.28630920  0.12861815  0.98428023  1
  Fe  Fe262  1  0.27968257  0.63379367  0.48479609  1
  Fe  Fe263  1  0.28421691  0.61965695  0.98229746  1
  Fe  Fe264  1  0.21636751  0.37422154  0.22611683  1
  Fe  Fe265  1  0.22075098  0.37437483  0.73559528  1
  Fe  Fe266  1  0.21788387  0.87505717  0.23249275  1
  Fe  Fe267  1  0.21847536  0.87409821  0.73258939  1
  Fe  Fe268  1  0.78058686  0.12473563  0.26206295  1
  Fe  Fe269  1  0.78319065  0.12525706  0.77180792  1
  Fe  Fe270  1  0.78129620  0.62562621  0.26748444  1
  Fe  Fe271  1  0.78199307  0.62480649  0.76720600  1
  Fe  Fe272  1  0.71373364  0.37147021  0.01559455  1
  Fe  Fe273  1  0.71870111  0.37679418  0.51424497  1
  Fe  Fe274  1  0.71617191  0.88000656  0.01760053  1
  Fe  Fe275  1  0.72007048  0.86771931  0.51522663  1
  Fe  Fe276  1  0.28417973  0.12449875  0.48098767  1
  Fe  Fe277  1  0.28622660  0.12798801  0.98440426  1
  P  P278  1  0.09226646  0.12470286  0.20298431  1
  P  P279  1  0.09145961  0.12500056  0.70258275  1
  P  P280  1  0.09207775  0.62487025  0.20186224  1
  P  P281  1  0.09159978  0.62456446  0.70186586  1
  P  P282  1  0.40565793  0.37800153  0.44959634  1
  P  P283  1  0.40619145  0.37628430  0.94680977  1
  P  P284  1  0.40757965  0.87401058  0.45114608  1
  P  P285  1  0.40633754  0.87281145  0.95112645  1
  P  P286  1  0.59454775  0.12269112  0.04423415  1
  P  P287  1  0.59800019  0.11802330  0.54579376  1
  P  P288  1  0.59336397  0.62597955  0.04803937  1
  P  P289  1  0.59323252  0.62577162  0.54827409  1
  P  P290  1  0.90792056  0.37507279  0.29649232  1
  P  P291  1  0.90699327  0.37556505  0.79595703  1
  P  P292  1  0.90935391  0.87504813  0.29791518  1
  P  P293  1  0.90883975  0.87509881  0.29808350  1
  P  P294  1  0.90994127  0.87464564  0.79935222  1
  P  P295  1  0.40698563  0.37561192  0.95661783  1
  P  P296  1  0.40640905  0.87349603  0.45167197  1
  P  P297  1  0.40711076  0.87440678  0.95161147  1
  P  P298  1  0.59434237  0.12199309  0.05040084  1
  P  P299  1  0.59301261  0.12439096  0.54337062  1
  P  P300  1  0.59288167  0.62559247  0.54839731  1
  P  P301  1  0.90773190  0.37529396  0.29701167  1
  P  P302  1  0.90854645  0.37499041  0.79741984  1
  P  P303  1  0.90792414  0.87512467  0.29813913  1
  P  P304  1  0.90840333  0.87543285  0.79814142  1
  P  P305  1  0.40717476  0.87519924  0.45138022  1
  P  P306  1  0.40582543  0.87292739  0.95244151  1
  P  P307  1  0.09015544  0.62516604  0.70255367  1
  P  P308  1  0.39818195  0.38748600  0.45563749  1
  P  P309  1  0.40479597  0.37726635  0.95484398  1
  P  P310  1  0.59770426  0.12019635  0.55224502  1
  P  P311  1  0.59365870  0.62718945  0.04887823  1
  P  P312  1  0.59241951  0.62598830  0.54885683  1
  P  P313  1  0.09092769  0.62479814  0.20100406  1
  P  P314  1  0.09155173  0.62502859  0.70154358  1
  P  P315  1  0.40230360  0.37979192  0.44775856  1
  P  P316  1  0.90564651  0.37499471  0.29731768  1
  P  P317  1  0.90802885  0.37608955  0.79702802  1
  P  P318  1  0.59409462  0.12367784  0.05081928  1
  P  P319  1  0.09198389  0.12403514  0.20407451  1
  P  P320  1  0.59301542  0.12439183  0.04336586  1
  P  P321  1  0.59434535  0.12198956  0.55040198  1
  P  P322  1  0.59288602  0.62559588  0.04839785  1
  P  P323  1  0.59358004  0.62650624  0.54833849  1
  P  P324  1  0.90854198  0.37499500  0.29741654  1
  P  P325  1  0.90773822  0.37528834  0.79701251  1
  P  P326  1  0.90839784  0.87544020  0.29812951  1
  P  P327  1  0.90792630  0.87512087  0.79814483  1
  P  P328  1  0.09116039  0.62490173  0.70191687  1
  P  P329  1  0.39768902  0.38439321  0.44350661  1
  P  P330  1  0.40586761  0.37630733  0.94916003  1
  P  P331  1  0.40752088  0.87400866  0.45104152  1
  P  P332  1  0.40608720  0.87279038  0.95118710  1
  P  P333  1  0.59521306  0.12272252  0.04513484  1
  P  P334  1  0.60181988  0.11251011  0.54434583  1
  P  P335  1  0.59417008  0.62707152  0.04756293  1
  P  P336  1  0.09283216  0.12490253  0.70383308  1
  P  P337  1  0.08988961  0.62569195  0.20112059  1
  P  P338  1  0.09041964  0.62492321  0.70257821  1
  P  P339  1  0.39554370  0.39131097  0.45213653  1
  P  P340  1  0.40477950  0.37707573  0.95343448  1
  P  P341  1  0.40747494  0.87528806  0.45085002  1
  P  P342  1  0.40537886  0.87251886  0.95239004  1
  P  P343  1  0.59428956  0.12355300  0.04878575  1
  P  P344  1  0.60577992  0.11000573  0.55768132  1
  P  P345  1  0.59432373  0.62735137  0.04831318  1
  P  P346  1  0.91012004  0.87443917  0.79889156  1
  P  P347  1  0.09175632  0.12379786  0.20349478  1
  P  P348  1  0.09384084  0.12494893  0.70304406  1
  P  P349  1  0.08983742  0.62551775  0.20093009  1
  P  P350  1  0.09097784  0.62461157  0.70236433  1
  P  P351  1  0.39422290  0.38998273  0.44230406  1
  P  P352  1  0.40566554  0.37643186  0.95119592  1
  P  P353  1  0.40747697  0.87442999  0.45086635  1
  P  P354  1  0.40567198  0.87264645  0.95169177  1
  P  P355  1  0.59520887  0.12290648  0.04655146  1
  P  P356  1  0.90703896  0.37575702  0.79558556  1
  P  P357  1  0.90984260  0.87483579  0.29745048  1
  P  P358  1  0.90990559  0.87410941  0.79882599  1
  P  P359  1  0.09220080  0.12442503  0.20231332  1
  P  P360  1  0.09361930  0.12500072  0.70261299  1
  P  P361  1  0.09096924  0.62542289  0.20140423  1
  P  P362  1  0.09064322  0.62495316  0.70208549  1
  P  P363  1  0.40199917  0.38197734  0.45420309  1
  P  P364  1  0.40545332  0.37729938  0.95575161  1
  P  P365  1  0.40676376  0.87422428  0.45172902  1
  P  P366  1  0.40663292  0.87401792  0.95196697  1
  P  P367  1  0.59380419  0.12370858  0.05317837  1
  P  P368  1  0.60232575  0.11559235  0.55648203  1
  P  P369  1  0.59391141  0.62722040  0.04881859  1
  P  P370  1  0.59247582  0.62598833  0.54896287  1
  P  P371  1  0.59282253  0.62479911  0.54862427  1
  P  P372  1  0.90734295  0.37506698  0.29652031  1
  P  P373  1  0.60446765  0.10871157  0.54782232  1
  P  P374  1  0.59461632  0.62747958  0.04761587  1
  P  P375  1  0.59252364  0.62470821  0.54915207  1
  P  P376  1  0.90716686  0.37509575  0.29615566  1
  P  P377  1  0.90801079  0.37596186  0.79593102  1
  P  P378  1  0.90957813  0.87507807  0.29742604  1
  P  P379  1  0.91011049  0.87429141  0.79889078  1
  P  P380  1  0.09197512  0.12390377  0.20296680  1
  P  P381  1  0.09435593  0.12500494  0.70267998  1
  P  P382  1  0.09006161  0.62534380  0.20066227  1
  P  P383  1  0.40523735  0.37679390  0.95290128  1
  P  P384  1  0.40758492  0.87486753  0.45066740  1
  P  P385  1  0.40530822  0.87255230  0.95212517  1
  P  P386  1  0.59473109  0.12318506  0.04706066  1
  P  P387  1  0.60565453  0.10736813  0.55460582  1
  P  P388  1  0.59468951  0.62744757  0.04788098  1
  P  P389  1  0.59240621  0.62512867  0.54933820  1
  P  P390  1  0.90709354  0.37518652  0.29632985  1
  P  P391  1  0.90871949  0.37616884  0.79611309  1
  P  P392  1  0.90897963  0.87560676  0.29743113  1
  P  P393  1  0.59251949  0.62556402  0.54913748  1
  P  P394  1  0.90616206  0.37505103  0.29696766  1
  P  P395  1  0.90824820  0.37619690  0.79650749  1
  P  P396  1  0.90902059  0.87538893  0.29763680  1
  P  P397  1  0.91016819  0.87447728  0.79909282  1
  P  P398  1  0.09128602  0.12383349  0.20390432  1
  P  P399  1  0.09290591  0.12481320  0.70365346  1
  P  P400  1  0.08988575  0.62555244  0.20113809  1
  P  P401  1  0.09101836  0.62439323  0.70257039  1
  P  P402  1  0.39434994  0.39262613  0.44538193  1
  P  P403  1  0.90902894  0.87455462  0.79860290  1
  P  P404  1  0.09145698  0.12499831  0.20257638  1
  P  P405  1  0.09226718  0.12470423  0.70298836  1
  P  P406  1  0.09160375  0.62456150  0.20186710  1
  P  P407  1  0.09207514  0.62487702  0.70185198  1
  P  P408  1  0.40700196  0.37560037  0.45659589  1
  P  P409  1  0.40565762  0.37800328  0.94958749  1
  P  P410  1  0.40710810  0.87440838  0.45161335  1
  P  P411  1  0.40641125  0.87349327  0.95167142  1
  P  P412  1  0.90638086  0.37499617  0.29738644  1
  P  P413  1  0.90780153  0.37556846  0.79768194  1
  P  P414  1  0.90845074  0.87497315  0.29845882  1
  P  P415  1  0.90907251  0.87518143  0.79900485  1
  P  P416  1  0.09296392  0.12424101  0.20442053  1
  P  P417  1  0.09265847  0.12493158  0.70347137  1
  P  P418  1  0.09009406  0.62587169  0.20117797  1
  P  P419  1  0.59358527  0.62650800  0.04834071  1
  P  P420  1  0.09301074  0.12442478  0.20403973  1
  P  P421  1  0.09208303  0.12492635  0.70350621  1
  O  O422  1  0.09816422  0.12391986  0.36510532  1
  O  O423  1  0.09711473  0.12436838  0.86486753  1
  O  O424  1  0.39783616  0.87062137  0.61307269  1
  O  O425  1  0.16093796  0.02553425  0.13567963  1
  O  O426  1  0.15957349  0.02486098  0.63682036  1
  O  O427  1  0.15957320  0.52474285  0.13528378  1
  O  O428  1  0.15911602  0.52459067  0.63546674  1
  O  O429  1  0.90139103  0.87489327  0.13613090  1
  O  O430  1  0.90222476  0.87498487  0.63596379  1
  O  O431  1  0.04782883  0.37504433  0.35849732  1
  O  O432  1  0.04854600  0.37516429  0.85864676  1
  O  O433  1  0.04834260  0.87458070  0.35871167  1
  O  O434  1  0.84198074  0.77422307  0.36292224  1
  O  O435  1  0.83931453  0.77591629  0.86514865  1
  O  O436  1  0.83967809  0.47505199  0.36340291  1
  O  O437  1  0.84018821  0.47543133  0.86335639  1
  O  O438  1  0.84125108  0.97365206  0.36596207  1
  O  O439  1  0.84444959  0.97526984  0.86535067  1
  O  O440  1  0.90156926  0.37575048  0.13396361  1
  O  O441  1  0.90234953  0.37593549  0.63382644  1
  O  O442  1  0.90194401  0.87518937  0.13559430  1
  O  O443  1  0.90502291  0.87256781  0.63664791  1
  O  O444  1  0.32840310  0.27982264  0.89430654  1
  O  O445  1  0.89969689  0.37611241  0.13507836  1
  O  O446  1  0.90288139  0.37583494  0.63543610  1
  O  O447  1  0.90166059  0.87528110  0.13653445  1
  O  O448  1  0.09861397  0.62507876  0.36386929  1
  O  O449  1  0.09777174  0.62499160  0.86404390  1
  O  O450  1  0.83922370  0.27507415  0.36184446  1
  O  O451  1  0.83946049  0.27543659  0.86271795  1
  O  O452  1  0.83936505  0.77561899  0.36476959  1
  O  O453  1  0.66063197  0.52549732  0.61356604  1
  O  O454  1  0.16145448  0.22474758  0.13964289  1
  O  O455  1  0.16122572  0.22449944  0.63830618  1
  O  O456  1  0.16050104  0.72437624  0.13469508  1
  O  O457  1  0.15848943  0.72523767  0.63600695  1
  O  O458  1  0.95115269  0.62539273  0.14131511  1
  O  O459  1  0.95165287  0.62543118  0.64128272  1
  O  O460  1  0.45316494  0.11898949  0.09996217  1
  O  O461  1  0.45309558  0.12495218  0.60861072  1
  O  O462  1  0.45252178  0.62565887  0.10874572  1
  O  O463  1  0.45268679  0.62529310  0.60782064  1
  O  O464  1  0.54687610  0.38095730  0.40005521  1
  O  O465  1  0.54691167  0.37504200  0.89138884  1
  O  O466  1  0.54746740  0.87433929  0.39124917  1
  O  O467  1  0.54730101  0.87469922  0.89217900  1
  O  O468  1  0.33877297  0.77296634  0.88367572  1
  O  O469  1  0.33667720  0.48467472  0.37138112  1
  O  O470  1  0.33767014  0.47717332  0.88054444  1
  O  O471  1  0.33942102  0.97441109  0.38595235  1
  O  O472  1  0.33818117  0.97319754  0.88573586  1
  O  O473  1  0.95227787  0.12427458  0.14079196  1
  O  O474  1  0.90250318  0.37592443  0.63442954  1
  O  O475  1  0.90185432  0.87559505  0.13577081  1
  O  O476  1  0.90480218  0.87309558  0.63685683  1
  O  O477  1  0.04700196  0.37428393  0.35626856  1
  O  O478  1  0.04818749  0.37567776  0.85799564  1
  O  O479  1  0.04940681  0.87524672  0.35788414  1
  O  O480  1  0.05040622  0.87364231  0.85982034  1
  O  O481  1  0.39173046  0.38639608  0.11444129  1
  O  O482  1  0.38744284  0.39505793  0.61302764  1
  O  O483  1  0.39778021  0.87004680  0.11406146  1
  O  O484  1  0.84383552  0.97507104  0.86483895  1
  O  O485  1  0.90141391  0.37584063  0.13431417  1
  O  O486  1  0.90186861  0.37603874  0.63348413  1
  O  O487  1  0.90223929  0.87488388  0.13556758  1
  O  O488  1  0.90440299  0.87277331  0.63664445  1
  O  O489  1  0.33794586  0.97421745  0.38646683  1
  O  O490  1  0.33887041  0.97556213  0.38613594  1
  O  O491  1  0.33785744  0.97345808  0.88746090  1
  O  O492  1  0.95304616  0.12473396  0.14252884  1
  O  O493  1  0.95222559  0.12498100  0.64360940  1
  O  O494  1  0.94985304  0.62631624  0.14028376  1
  O  O495  1  0.94979248  0.62552430  0.64212253  1
  O  O496  1  0.45344156  0.11999669  0.10726621  1
  O  O497  1  0.45767717  0.12045330  0.59741322  1
  O  O498  1  0.45293270  0.62608837  0.10798179  1
  O  O499  1  0.16089998  0.02502536  0.63567107  1
  O  O500  1  0.15532357  0.52463645  0.13367056  1
  O  O501  1  0.16000042  0.52627631  0.63384488  1
  O  O502  1  0.67156868  0.22016922  0.10567762  1
  O  O503  1  0.66837202  0.21517854  0.60215573  1
  O  O504  1  0.66145806  0.72708116  0.11596352  1
  O  O505  1  0.66079039  0.72452278  0.61703417  1
  O  O506  1  0.32701685  0.28494566  0.39432372  1
  O  O507  1  0.32915998  0.27919116  0.89172554  1
  O  O508  1  0.33898862  0.77471809  0.38261952  1
  O  O509  1  0.90391562  0.87376582  0.63716534  1
  O  O510  1  0.04656602  0.37410981  0.35652065  1
  O  O511  1  0.04772602  0.37572242  0.85920509  1
  O  O512  1  0.04936530  0.87503998  0.35812318  1
  O  O513  1  0.05028328  0.87373981  0.85972388  1
  O  O514  1  0.39283888  0.38536546  0.11636322  1
  O  O515  1  0.38964669  0.39313106  0.61579091  1
  O  O516  1  0.39859797  0.87124831  0.11432851  1
  O  O517  1  0.33807494  0.47647071  0.89033447  1
  O  O518  1  0.33762232  0.97336508  0.38594076  1
  O  O519  1  0.84189869  0.97382829  0.36552902  1
  O  O520  1  0.33845855  0.97453020  0.88732244  1
  O  O521  1  0.95308470  0.12479928  0.14199636  1
  O  O522  1  0.95185918  0.12515505  0.64307560  1
  O  O523  1  0.95053458  0.62587620  0.14087562  1
  O  O524  1  0.95018777  0.62545373  0.64171950  1
  O  O525  1  0.45355607  0.12313949  0.11324219  1
  O  O526  1  0.45510250  0.11881409  0.60055639  1
  O  O527  1  0.45263612  0.62612278  0.10797955  1
  O  O528  1  0.45193910  0.62667081  0.60862906  1
  O  O529  1  0.54416135  0.37594324  0.39760645  1
  O  O530  1  0.04768477  0.37492440  0.35604186  1
  O  O531  1  0.04805593  0.37533008  0.85723695  1
  O  O532  1  0.04992733  0.87474076  0.35777549  1
  O  O533  1  0.39254185  0.38615663  0.11214780  1
  O  O534  1  0.38735767  0.39032871  0.60685053  1
  O  O535  1  0.39788965  0.86987849  0.11340450  1
  O  O536  1  0.39774157  0.87064202  0.61214763  1
  O  O537  1  0.15989749  0.02435821  0.13655340  1
  O  O538  1  0.15959569  0.02478790  0.63692332  1
  O  O539  1  0.15757223  0.52483142  0.13514592  1
  O  O540  1  0.15818286  0.52539859  0.63494442  1
  O  O541  1  0.66451752  0.22296437  0.11729250  1
  O  O542  1  0.67380582  0.21926427  0.60518534  1
  O  O543  1  0.66096687  0.72702519  0.11658409  1
  O  O544  1  0.66114378  0.72563003  0.61606309  1
  O  O545  1  0.33634377  0.27884179  0.39323025  1
  O  O546  1  0.32841116  0.27999350  0.89820436  1
  O  O547  1  0.33931973  0.77453779  0.38297823  1
  O  O548  1  0.60744711  0.11383351  0.88783922  1
  O  O549  1  0.60225474  0.62936483  0.38785334  1
  O  O550  1  0.60210299  0.63012767  0.88660004  1
  O  O551  1  0.66186373  0.02296753  0.11925053  1
  O  O552  1  0.66681297  0.01096243  0.62934806  1
  O  O553  1  0.66235834  0.52690474  0.11355973  1
  O  O554  1  0.66047186  0.52501860  0.61403714  1
  O  O555  1  0.16062093  0.22433926  0.13966108  1
  O  O556  1  0.16276139  0.22384595  0.63820914  1
  O  O557  1  0.16068682  0.72407458  0.13489075  1
  O  O558  1  0.33921028  0.77546684  0.38297893  1
  O  O559  1  0.33854052  0.77291316  0.88404676  1
  O  O560  1  0.33221448  0.48705862  0.37410528  1
  O  O561  1  0.33759425  0.47781743  0.88250180  1
  O  O562  1  0.33927224  0.97581269  0.38596961  1
  O  O563  1  0.15801201  0.72578016  0.63708058  1
  O  O564  1  0.09739204  0.12412714  0.36604091  1
  O  O565  1  0.09832126  0.12437830  0.86590002  1
  O  O566  1  0.09467454  0.62747218  0.36341510  1
  O  O567  1  0.09830671  0.62442529  0.86440028  1
  O  O568  1  0.83679623  0.27643407  0.36228429  1
  O  O569  1  0.84017665  0.27583647  0.86095523  1
  O  O570  1  0.84186524  0.77439193  0.36275706  1
  O  O571  1  0.83924772  0.77610119  0.86511596  1
  O  O572  1  0.83972500  0.47516028  0.36354961  1
  O  O573  1  0.15957993  0.52475046  0.63528058  1
  O  O574  1  0.67035259  0.22091185  0.10265472  1
  O  O575  1  0.66272294  0.22324292  0.61272829  1
  O  O576  1  0.66182137  0.72548167  0.11396446  1
  O  O577  1  0.66076357  0.72636856  0.61628052  1
  O  O578  1  0.32966901  0.27905943  0.39735685  1
  O  O579  1  0.33728025  0.27674729  0.88726697  1
  O  O580  1  0.33818433  0.77452209  0.38604180  1
  O  O581  1  0.33923998  0.77363017  0.88371965  1
  O  O582  1  0.84043827  0.47513592  0.36318444  1
  O  O583  1  0.83907251  0.47445755  0.86431579  1
  O  O584  1  0.84089697  0.97541802  0.36453318  1
  O  O585  1  0.84043236  0.97525573  0.86469369  1
  O  O586  1  0.90288948  0.37562824  0.13513254  1
  O  O587  1  0.90183906  0.37606059  0.63489225  1
  O  O588  1  0.90223204  0.87499747  0.13595192  1
  O  O589  1  0.90138753  0.87486835  0.63613216  1
  O  O590  1  0.04854149  0.37515888  0.35863977  1
  O  O591  1  0.04783575  0.37504922  0.85850037  1
  O  O592  1  0.60826217  0.11015198  0.38564621  1
  O  O593  1  0.60463115  0.11568013  0.88222908  1
  O  O594  1  0.90292952  0.87442253  0.63685505  1
  O  O595  1  0.04710972  0.37433682  0.35710060  1
  O  O596  1  0.04752891  0.37547212  0.85973535  1
  O  O597  1  0.04897876  0.87493148  0.35850438  1
  O  O598  1  0.04955527  0.87426593  0.85929171  1
  O  O599  1  0.39535863  0.38431443  0.11775614  1
  O  O600  1  0.39173101  0.38985233  0.61435002  1
  O  O601  1  0.39988959  0.87280390  0.11403297  1
  O  O602  1  0.54618834  0.38166072  0.90107307  1
  O  O603  1  0.54769505  0.87546294  0.39252815  1
  O  O604  1  0.16455911  0.22391018  0.63785054  1
  O  O605  1  0.16083803  0.72380878  0.13480915  1
  O  O606  1  0.15816189  0.72564598  0.63693115  1
  O  O607  1  0.33744850  0.97310016  0.88733243  1
  O  O608  1  0.95194546  0.12467322  0.14275749  1
  O  O609  1  0.95231515  0.12507127  0.64395134  1
  O  O610  1  0.94967790  0.62641007  0.14011815  1
  O  O611  1  0.95006887  0.62526629  0.64223357  1
  O  O612  1  0.45363247  0.11920990  0.10401683  1
  O  O613  1  0.45995861  0.12030637  0.59688575  1
  O  O614  1  0.45331965  0.62575942  0.10736369  1
  O  O615  1  0.45181557  0.62668655  0.60798483  1
  O  O616  1  0.54000582  0.38320124  0.40130649  1
  O  O617  1  0.46000719  0.11680356  0.59867180  1
  O  O618  1  0.45340577  0.62577893  0.10624720  1
  O  O619  1  0.45174071  0.62449074  0.60790474  1
  O  O620  1  0.54004235  0.37967707  0.40310332  1
  O  O621  1  0.54630424  0.38074005  0.89591619  1
  O  O622  1  0.54817919  0.87330821  0.39201199  1
  O  O623  1  0.33903166  0.77297304  0.88342566  1
  O  O624  1  0.33791272  0.47991957  0.37645387  1
  O  O625  1  0.33813567  0.47677630  0.87894105  1
  O  O626  1  0.84072157  0.47556947  0.86338683  1
  O  O627  1  0.83998238  0.97385166  0.36600186  1
  O  O628  1  0.84467476  0.97541719  0.86574860  1
  O  O629  1  0.90167368  0.37560036  0.13408951  1
  O  O630  1  0.90260875  0.37583771  0.63397863  1
  O  O631  1  0.90169149  0.87554012  0.13560478  1
  O  O632  1  0.90531977  0.87245862  0.63661366  1
  O  O633  1  0.04774921  0.37455784  0.35605410  1
  O  O634  1  0.04876333  0.37543321  0.85702877  1
  O  O635  1  0.04928039  0.87527521  0.35785472  1
  O  O636  1  0.33811473  0.47647718  0.39030758  1
  O  O637  1  0.33929724  0.47725092  0.87793671  1
  O  O638  1  0.33865590  0.97469555  0.38689509  1
  O  O639  1  0.33762384  0.97336480  0.88594622  1
  O  O640  1  0.95145382  0.12483820  0.14135878  1
  O  O641  1  0.95216783  0.12495916  0.64150259  1
  O  O642  1  0.09805921  0.62478352  0.86440799  1
  O  O643  1  0.83543442  0.27608665  0.36214698  1
  O  O644  1  0.84010912  0.27593685  0.86183595  1
  O  O645  1  0.84182620  0.77436031  0.36308002  1
  O  O646  1  0.83916198  0.77619354  0.86523004  1
  O  O647  1  0.83910755  0.47498180  0.36432787  1
  O  O648  1  0.84010705  0.47563933  0.86344048  1
  O  O649  1  0.84000347  0.97372905  0.36614735  1
  O  O650  1  0.84470231  0.97536940  0.86633454  1
  O  O651  1  0.90061565  0.37586528  0.13465248  1
  O  O652  1  0.16016281  0.72423255  0.13567941  1
  O  O653  1  0.16062138  0.72439129  0.63523794  1
  O  O654  1  0.16106129  0.02540667  0.63496224  1
  O  O655  1  0.15742244  0.52451192  0.13395621  1
  O  O656  1  0.15964932  0.52562813  0.63390038  1
  O  O657  1  0.67158727  0.22000344  0.10176584  1
  O  O658  1  0.66365792  0.22115826  0.60676272  1
  O  O659  1  0.66117109  0.72572486  0.11495838  1
  O  O660  1  0.66068506  0.72545325  0.61702757  1
  O  O661  1  0.32620522  0.28072703  0.39480666  1
  O  O662  1  0.33547925  0.27702807  0.88269517  1
  O  O663  1  0.33886015  0.77436435  0.38394739  1
  O  O664  1  0.09813144  0.12392559  0.36652238  1
  O  O665  1  0.09858448  0.12414304  0.86568269  1
  O  O666  1  0.09558977  0.62714725  0.36335926  1
  O  O667  1  0.09776928  0.62508783  0.86443267  1
  O  O668  1  0.83540197  0.27558515  0.36204039  1
  O  O669  1  0.66192383  0.02353161  0.60965310  1
  O  O670  1  0.66237270  0.52663223  0.11404959  1
  O  O671  1  0.66133691  0.52529908  0.61309224  1
  O  O672  1  0.16078285  0.22492644  0.13817113  1
  O  O673  1  0.16053854  0.22455597  0.63728313  1
  O  O674  1  0.16062831  0.72438501  0.13524917  1
  O  O675  1  0.16016214  0.72423006  0.63567038  1
  O  O676  1  0.09812558  0.12391414  0.36608969  1
  O  O677  1  0.09826303  0.12427786  0.86570479  1
  O  O678  1  0.09690828  0.62629171  0.36350518  1
  O  O679  1  0.09773165  0.62528781  0.86407448  1
  O  O680  1  0.83720576  0.27516579  0.36241236  1
  O  O681  1  0.83941705  0.27561103  0.86328360  1
  O  O682  1  0.84050123  0.77496425  0.36465796  1
  O  O683  1  0.83961801  0.77603431  0.86518525  1
  O  O684  1  0.04884484  0.87462065  0.35868384  1
  O  O685  1  0.04834480  0.87457981  0.85871590  1
  O  O686  1  0.39400570  0.38617575  0.10979350  1
  O  O687  1  0.40092785  0.37736707  0.61987579  1
  O  O688  1  0.60599300  0.11380841  0.39019617  1
  O  O689  1  0.59907171  0.12263187  0.88008341  1
  O  O690  1  0.83854663  0.27524617  0.86036400  1
  O  O691  1  0.84149401  0.77477144  0.36399897  1
  O  O692  1  0.83949388  0.77561380  0.86534205  1
  O  O693  1  0.84041938  0.47521492  0.36308009  1
  O  O694  1  0.83838898  0.47461378  0.86366297  1
  O  O695  1  0.84181939  0.97460691  0.36504856  1
  O  O696  1  0.84242281  0.97515677  0.86482088  1
  O  O697  1  0.90173672  0.37571313  0.13429514  1
  O  O698  1  0.90187773  0.37604243  0.63390942  1
  O  O699  1  0.90227138  0.87468566  0.13592475  1
  O  O700  1  0.66142048  0.72721366  0.11614896  1
  O  O701  1  0.66064352  0.72486785  0.61768802  1
  O  O702  1  0.33199882  0.28463166  0.39563967  1
  O  O703  1  0.32884089  0.27957651  0.89348704  1
  O  O704  1  0.33935586  0.77512252  0.38232395  1
  O  O705  1  0.33857508  0.77278404  0.88386214  1
  O  O706  1  0.33076538  0.48934084  0.37177746  1
  O  O707  1  0.33824285  0.47720463  0.88118135  1
  O  O708  1  0.33924786  0.97540052  0.38595297  1
  O  O709  1  0.33717015  0.97301186  0.88694371  1
  O  O710  1  0.33864661  0.77331292  0.88459189  1
  O  O711  1  0.33424847  0.48355758  0.37713115  1
  O  O712  1  0.33741550  0.47794344  0.88419086  1
  O  O713  1  0.39787862  0.87133673  0.61265719  1
  O  O714  1  0.16091126  0.02494959  0.13662423  1
  O  O715  1  0.16007200  0.02487108  0.63649307  1
  O  O716  1  0.15616582  0.52491796  0.13513545  1
  O  O717  1  0.15810431  0.52617699  0.63446526  1
  O  O718  1  0.66994412  0.22130376  0.11058285  1
  O  O719  1  0.67575655  0.21675482  0.60628703  1
  O  O720  1  0.83894408  0.47459195  0.36503716  1
  O  O721  1  0.83938361  0.47535226  0.86364550  1
  O  O722  1  0.84036484  0.97437919  0.36609891  1
  O  O723  1  0.84257901  0.97547934  0.86601424  1
  O  O724  1  0.89996539  0.37606546  0.13521014  1
  O  O725  1  0.66272313  0.22324797  0.11272429  1
  O  O726  1  0.90184553  0.37606451  0.13489052  1
  O  O727  1  0.90288703  0.37562601  0.63513775  1
  O  O728  1  0.66075889  0.72637503  0.11628027  1
  O  O729  1  0.66182252  0.72547447  0.61396393  1
  O  O730  1  0.95343788  0.12588492  0.64347256  1
  O  O731  1  0.94972335  0.62626324  0.14028355  1
  O  O732  1  0.95063142  0.62496583  0.64188661  1
  O  O733  1  0.45436810  0.11787953  0.09936826  1
  O  O734  1  0.45845800  0.11973689  0.59830897  1
  O  O735  1  0.45305087  0.62578351  0.10616441  1
  O  O736  1  0.45204441  0.62460265  0.60776853  1
  O  O737  1  0.54233150  0.37955538  0.40255403  1
  O  O738  1  0.54650754  0.37995027  0.89266861  1
  O  O739  1  0.54814644  0.87277308  0.39181440  1
  O  O740  1  0.60209281  0.62961382  0.38700993  1
  O  O741  1  0.60010846  0.62721069  0.88597295  1
  O  O742  1  0.39782693  0.87175895  0.61215355  1
  O  O743  1  0.15982221  0.02456910  0.13664949  1
  O  O744  1  0.16033290  0.02494933  0.63659535  1
  O  O745  1  0.15555607  0.52472234  0.13463230  1
  O  O746  1  0.15875459  0.52635487  0.63403137  1
  O  O747  1  0.67076833  0.22080092  0.10826743  1
  O  O748  1  0.67298388  0.21504220  0.60567184  1
  O  O749  1  0.66134391  0.72713152  0.11625657  1
  O  O750  1  0.66101396  0.72527019  0.61738958  1
  O  O751  1  0.33164283  0.28483732  0.39783360  1
  O  O752  1  0.54741253  0.87493337  0.89263041  1
  O  O753  1  0.60730023  0.11530954  0.38843641  1
  O  O754  1  0.60526433  0.11652542  0.89260530  1
  O  O755  1  0.60045344  0.62871480  0.38719374  1
  O  O756  1  0.60186920  0.63011706  0.88726877  1
  O  O757  1  0.66186449  0.02321862  0.12105067  1
  O  O758  1  0.66209322  0.02006954  0.62355097  1
  O  O759  1  0.66178911  0.52696307  0.11447892  1
  O  O760  1  0.90295280  0.37607690  0.63485965  1
  O  O761  1  0.90183721  0.87552352  0.13616014  1
  O  O762  1  0.09704770  0.12389137  0.36513806  1
  O  O763  1  0.10030424  0.12387269  0.86491831  1
  O  O764  1  0.09608447  0.62615883  0.36284510  1
  O  O765  1  0.09816617  0.62444425  0.86384069  1
  O  O766  1  0.83795289  0.27573635  0.36167156  1
  O  O767  1  0.83837809  0.27549501  0.85990961  1
  O  O768  1  0.84224622  0.77417484  0.36324901  1
  O  O769  1  0.83947359  0.77561901  0.86532137  1
  O  O770  1  0.83993836  0.47512940  0.36350623  1
  O  O771  1  0.83909430  0.47504868  0.86337518  1
  O  O772  1  0.39783563  0.87061776  0.11307208  1
  O  O773  1  0.40090389  0.87336597  0.61368665  1
  O  O774  1  0.15956931  0.02485529  0.13682563  1
  O  O775  1  0.16094008  0.02553766  0.63567555  1
  O  O776  1  0.15911429  0.52458642  0.13546010  1
  O  O777  1  0.15948581  0.72504638  0.63535105  1
  O  O778  1  0.09711964  0.12436249  0.36486059  1
  O  O779  1  0.09815797  0.12392536  0.86510996  1
  O  O780  1  0.09778548  0.62496338  0.36403943  1
  O  O781  1  0.09861361  0.62509311  0.86386063  1
  O  O782  1  0.83945918  0.27544282  0.36272280  1
  O  O783  1  0.83922642  0.27506739  0.86183883  1
  O  O784  1  0.83981992  0.77578270  0.36433070  1
  O  O785  1  0.83936198  0.77561581  0.86476736  1
  O  O786  1  0.60215521  0.62938016  0.38693749  1
  O  O787  1  0.59910284  0.62666160  0.88632722  1
  O  O788  1  0.66191702  0.02353070  0.10964856  1
  O  O789  1  0.66070652  0.02274307  0.62205983  1
  O  O790  1  0.66134196  0.52530128  0.11309094  1
  O  O791  1  0.66236817  0.52663346  0.61405330  1
  O  O792  1  0.16054335  0.22455574  0.13729216  1
  O  O793  1  0.16077564  0.22492754  0.63816381  1
  O  O794  1  0.90308921  0.87362011  0.63649926  1
  O  O795  1  0.04814642  0.37484048  0.35691902  1
  O  O796  1  0.04691953  0.37519859  0.85800052  1
  O  O797  1  0.04980516  0.87455231  0.35829077  1
  O  O798  1  0.04946342  0.87412372  0.85912849  1
  O  O799  1  0.39473648  0.38346697  0.10738274  1
  O  O800  1  0.39271491  0.38466799  0.61156843  1
  O  O801  1  0.39812361  0.86989025  0.11273498  1
  O  O802  1  0.39955111  0.87129835  0.61280885  1
  O  O803  1  0.16062033  0.02464379  0.13634455  1
  O  O804  1  0.67105120  0.22042622  0.10651983  1
  O  O805  1  0.66800396  0.21536491  0.60434072  1
  O  O806  1  0.84044090  0.47513650  0.86316978  1
  O  O807  1  0.84043058  0.97525280  0.36471179  1
  O  O808  1  0.84090448  0.97542031  0.86451944  1
  O  O809  1  0.67035500  0.22090999  0.60265637  1
  O  O810  1  0.04885340  0.87461071  0.85869093  1
  O  O811  1  0.40092578  0.37736819  0.11989924  1
  O  O812  1  0.39399577  0.38617802  0.60980262  1
  O  O813  1  0.40090133  0.87336167  0.11368415  1
  O  O814  1  0.32831028  0.27991600  0.89637981  1
  O  O815  1  0.33893792  0.77549774  0.38326161  1
  O  O816  1  0.95125091  0.12456802  0.14297000  1
  O  O817  1  0.95225222  0.12543992  0.64394050  1
  O  O818  1  0.94969086  0.62642033  0.14011423  1
  O  O819  1  0.95071554  0.62472939  0.64215742  1
  O  O820  1  0.45391182  0.11862120  0.10167449  1
  O  O821  1  0.46036675  0.11649554  0.60060884  1
  O  O822  1  0.45356351  0.62558895  0.10678933  1
  O  O823  1  0.45164734  0.62513537  0.60798269  1
  O  O824  1  0.53963362  0.38350194  0.39937146  1
  O  O825  1  0.54606098  0.38132608  0.89828108  1
  O  O826  1  0.33936148  0.97449905  0.38643400  1
  O  O827  1  0.33821040  0.97303745  0.88551838  1
  O  O828  1  0.95247280  0.12452799  0.14026190  1
  O  O829  1  0.54833562  0.87485346  0.39201402  1
  O  O830  1  0.54643428  0.87440338  0.89321803  1
  O  O831  1  0.61083162  0.10983487  0.39182114  1
  O  O832  1  0.60799586  0.11355587  0.88622552  1
  O  O833  1  0.60236632  0.62897483  0.38807597  1
  O  O834  1  0.60248422  0.63027237  0.88626828  1
  O  O835  1  0.66169408  0.02277942  0.11883541  1
  O  O836  1  0.66923866  0.01065629  0.62821761  1
  O  O837  1  0.66281083  0.52697620  0.11304306  1
  O  O838  1  0.66074182  0.52459187  0.61404303  1
  O  O839  1  0.04777746  0.37501345  0.35638594  1
  O  O840  1  0.04696099  0.37526787  0.85747013  1
  O  O841  1  0.05020270  0.87448242  0.35788628  1
  O  O842  1  0.05014517  0.87368225  0.85972050  1
  O  O843  1  0.39328045  0.38529082  0.11005739  1
  O  O844  1  0.38674727  0.38980225  0.60794977  1
  O  O845  1  0.39820207  0.87029915  0.11293322  1
  O  O846  1  0.39860832  0.87059633  0.61249493  1
  O  O847  1  0.16036590  0.02437382  0.13639084  1
  O  O848  1  0.45184912  0.62722427  0.60818450  1
  O  O849  1  0.54154448  0.38024874  0.40168133  1
  O  O850  1  0.54564933  0.38209377  0.90063093  1
  O  O851  1  0.54795151  0.87538950  0.39223128  1
  O  O852  1  0.54694532  0.87421164  0.89384072  1
  O  O853  1  0.61326247  0.11018378  0.39204051  1
  O  O854  1  0.60670777  0.11469993  0.88992320  1
  O  O855  1  0.60139217  0.62941011  0.38750867  1
  O  O856  1  0.60178502  0.62971534  0.88707120  1
  O  O857  1  0.66229564  0.02282105  0.11945566  1
  O  O858  1  0.95289184  0.12565352  0.64289440  1
  O  O859  1  0.15982946  0.22415904  0.13905448  1
  O  O860  1  0.16320614  0.22356746  0.63771517  1
  O  O861  1  0.16075980  0.72389176  0.13492167  1
  O  O862  1  0.15812215  0.72561469  0.63725661  1
  O  O863  1  0.09749434  0.12403765  0.36557332  1
  O  O864  1  0.09937410  0.12411716  0.86533474  1
  O  O865  1  0.09519560  0.62683544  0.36316280  1
  O  O866  1  0.09814523  0.62436882  0.86423256  1
  O  O867  1  0.83723779  0.27615486  0.36179065  1
  O  O868  1  0.83937984  0.27565551  0.86035016  1
  O  O869  1  0.66123530  0.72704026  0.11633034  1
  O  O870  1  0.66113825  0.72566308  0.61675301  1
  O  O871  1  0.33277107  0.28270648  0.39836390  1
  O  O872  1  0.83997413  0.27593100  0.86242601  1
  O  O873  1  0.84160262  0.77440464  0.36379910  1
  O  O874  1  0.83934177  0.77608637  0.86538953  1
  O  O875  1  0.83869065  0.47476827  0.36510929  1
  O  O876  1  0.83963886  0.47562183  0.86359792  1
  O  O877  1  0.84044485  0.97389971  0.36634845  1
  O  O878  1  0.84424051  0.97534554  0.86661745  1
  O  O879  1  0.16131727  0.02523363  0.63488558  1
  O  O880  1  0.15577619  0.52465373  0.13337350  1
  O  O881  1  0.15955999  0.52610400  0.63364613  1
  O  O882  1  0.67169355  0.22007148  0.10360957  1
  O  O883  1  0.66721715  0.21729333  0.60162512  1
  O  O884  1  0.66135138  0.72668362  0.11541864  1
  O  O885  1  0.66106456  0.72449580  0.61674936  1
  O  O886  1  0.32424930  0.28323313  0.39370653  1
  O  O887  1  0.32999729  0.27868502  0.88941043  1
  O  O888  1  0.33886421  0.77432936  0.38325661  1
  O  O889  1  0.45251914  0.62565605  0.60875383  1
  O  O890  1  0.54690882  0.37504080  0.39138598  1
  O  O891  1  0.54684267  0.38100079  0.90003771  1
  O  O892  1  0.54729915  0.87469908  0.39218421  1
  O  O893  1  0.54747037  0.87433757  0.89124906  1
  O  O894  1  0.59907469  0.12263512  0.38008549  1
  O  O895  1  0.60599085  0.11380738  0.89019619  1
  O  O896  1  0.59910133  0.62665442  0.38632660  1
  O  O897  1  0.60215702  0.62938657  0.88694069  1
  O  O898  1  0.66070040  0.02274317  0.12205507  1
  O  O899  1  0.54559796  0.38188268  0.89897117  1
  O  O900  1  0.54825552  0.87550044  0.39209654  1
  O  O901  1  0.54658955  0.87421775  0.89375739  1
  O  O902  1  0.61263729  0.10966892  0.39313603  1
  O  O903  1  0.54490356  0.38118343  0.39944432  1
  O  O904  1  0.54643826  0.37684617  0.88673972  1
  O  O905  1  0.54805916  0.87332735  0.39136923  1
  O  O906  1  0.54736135  0.87387487  0.89202695  1
  O  O907  1  0.54667354  0.87422839  0.89264228  1
  O  O908  1  0.61255673  0.10493382  0.38693682  1
  O  O909  1  0.60826075  0.11359875  0.88554343  1
  O  O910  1  0.60216897  0.62825223  0.38784826  1
  O  O911  1  0.60220865  0.62995902  0.88594105  1
  O  O912  1  0.66241282  0.02216854  0.11747459  1
  O  O913  1  0.66778814  0.01296576  0.62586072  1
  O  O914  1  0.66253628  0.52689154  0.11265834  1
  O  O915  1  0.66071907  0.52417898  0.61402715  1
  O  O916  1  0.15989387  0.22405731  0.13817691  1
  O  O917  1  0.33865466  0.77286230  0.88374780  1
  O  O918  1  0.33318972  0.48903167  0.37064117  1
  O  O919  1  0.33810218  0.47702582  0.88074261  1
  O  O920  1  0.33951917  0.97497280  0.38596075  1
  O  O921  1  0.33763355  0.97309257  0.88644027  1
  O  O922  1  0.95181827  0.12431984  0.14200037  1
  O  O923  1  0.95301053  0.12571402  0.64372642  1
  O  O924  1  0.94960777  0.62635892  0.14018721  1
  O  O925  1  0.95058842  0.62475724  0.64212821  1
  O  O926  1  0.45438446  0.11808477  0.10099743  1
  O  O927  1  0.66332585  0.01531321  0.62862209  1
  O  O928  1  0.66181570  0.52680930  0.11425676  1
  O  O929  1  0.66057081  0.52558363  0.61404830  1
  O  O930  1  0.16162515  0.22450129  0.14009924  1
  O  O931  1  0.16204682  0.22426296  0.63832743  1
  O  O932  1  0.16052365  0.72437405  0.13471788  1
  O  O933  1  0.15774013  0.72583307  0.63675550  1
  O  O934  1  0.09764676  0.12403080  0.36617958  1
  O  O935  1  0.09842737  0.12422966  0.86602984  1
  O  O936  1  0.09496896  0.62735641  0.36336335  1
  O  O937  1  0.66112281  0.52443335  0.61386346  1
  O  O938  1  0.16003157  0.22406424  0.13758252  1
  O  O939  1  0.16459495  0.22441584  0.63795406  1
  O  O940  1  0.16065644  0.72391102  0.13464554  1
  O  O941  1  0.15838743  0.72560115  0.63620783  1
  O  O942  1  0.09711865  0.12413422  0.36456120  1
  O  O943  1  0.10003550  0.12391836  0.86478902  1
  O  O944  1  0.09707304  0.62548777  0.36315115  1
  O  O945  1  0.09834485  0.62469489  0.86346722  1
  O  O946  1  0.83877568  0.27550095  0.36169560  1
  O  O947  1  0.16058497  0.22438469  0.13672177  1
  O  O948  1  0.16278543  0.22483475  0.63758783  1
  O  O949  1  0.16037749  0.72395781  0.13485402  1
  O  O950  1  0.16002309  0.52615415  0.63399141  1
  O  O951  1  0.33728495  0.27674931  0.38725482  1
  O  O952  1  0.32965317  0.27908494  0.89734512  1
  O  O953  1  0.33923980  0.77363032  0.38372272  1
  O  O954  1  0.33817767  0.77452298  0.88604156  1
  O  O955  1  0.33929673  0.47724859  0.37793999  1
  O  O956  1  0.33882589  0.77426998  0.88505611  1
  O  O957  1  0.33666997  0.47975144  0.37928452  1
  O  O958  1  0.33786870  0.47780381  0.88548758  1
  O  O959  1  0.83982856  0.77577102  0.86433355  1
  O  O960  1  0.83907008  0.47445974  0.36433128  1
  O  O961  1  0.33865647  0.97469693  0.88690293  1
  O  O962  1  0.95216517  0.12495780  0.14150223  1
  O  O963  1  0.95146189  0.12484197  0.64135435  1
  O  O964  1  0.95166039  0.62542692  0.14128381  1
  O  O965  1  0.95115178  0.62539208  0.64131035  1
  O  O966  1  0.45309113  0.12495498  0.10860962  1
  O  O967  1  0.45315972  0.11899280  0.59996710  1
  O  O968  1  0.45269034  0.62529882  0.10781782  1
  O  O969  1  0.39790390  0.87039159  0.61299324  1
  O  O970  1  0.16161410  0.02537995  0.13632055  1
  O  O971  1  0.95044527  0.62573289  0.14071451  1
  O  O972  1  0.95102093  0.62507354  0.64150371  1
  O  O973  1  0.45381416  0.11833530  0.09891659  1
  O  O974  1  0.45583853  0.12405152  0.60239187  1
  O  O975  1  0.45258454  0.62505805  0.10737561  1
  O  O976  1  0.45229999  0.62453495  0.60747137  1
  O  O977  1  0.54706585  0.87390806  0.89202356  1
  O  O978  1  0.61034705  0.10686301  0.38419309  1
  O  O979  1  0.60716421  0.11462323  0.88361374  1
  O  O980  1  0.60212046  0.62867610  0.38734676  1
  O  O981  1  0.60139659  0.62876491  0.88567579  1
  O  O982  1  0.66260792  0.02205251  0.11578294  1
  O  O983  1  0.66576356  0.01644227  0.62285065  1
  O  O984  1  0.66213150  0.52653537  0.11253051  1
  O  O985  1  0.66214125  0.02219018  0.11449866  1
  O  O986  1  0.66333552  0.02025034  0.62070947  1
  O  O987  1  0.66154034  0.52546581  0.11267473  1
  O  O988  1  0.66204419  0.52577574  0.61353546  1
  O  O989  1  0.39198299  0.38643695  0.11372943  1
  O  O990  1  0.38916223  0.39015537  0.60816873  1
  O  O991  1  0.39750642  0.86973265  0.11373555  1
  O  O992  1  0.39762887  0.87103647  0.61192799  1
  O  O993  1  0.15929270  0.02443443  0.13662390  1
  O  O994  1  0.16028888  0.02484078  0.63645255  1
  O  O995  1  0.15535294  0.52458793  0.13425855  1
  O  O996  1  0.05032622  0.87358026  0.85989291  1
